950
C 23.2854497   1.68199692 25.07060507
C  7.03224487 17.93529028 25.0706563 
C 10.64625275 14.32123238 25.06377484
C  8.84101488 16.12648723 25.06528017
C 14.25638179 10.7110726  25.06294531
C 12.45141613 12.51606674 25.06319868
C 17.86626608  7.10118423 25.06321856
C 16.06129215  8.90616196 25.06296222
C 21.47666465  3.49078231 25.06522439
C 19.67141521  5.29602193 25.0637554 
C 25.07060185  1.68199649 23.28545432
C 21.47667369 -0.09776758 21.47667592
C 22.38050373  0.77286344 22.38050645
C 21.49049511  1.69645518 23.2710105 
C 22.38049122  2.58695436 24.1945836 
C 23.2854534  -0.10316762 23.28545705
C 24.17842466  0.78902565 24.1784288 
C 23.27100871  1.69645475 21.4904983 
C 24.19458133  2.58695392 22.38049493
C 19.68444365  1.69856423 21.4644049 
C 20.57144624  2.58395237 22.38349828
C 10.63327266 17.91871011 21.46444717
C  7.04670106 17.92085007 21.49054416
C  7.93721279 18.84442579 22.38054968
C  7.03226458 19.7204545  23.28549782
C  8.82721686 17.92082423 23.27105568
C  8.84104412 19.71506264 21.47672118
C  5.24709278 17.93530805 23.28549816
C  6.13928507 18.8282651  24.17846331
C 14.2433451  14.3079194  21.46278388
C 10.64616024 14.32135046 21.47527189
C 11.55200801 15.227337   22.38222571
C 10.63325166 16.11420864 23.26893903
C 12.43867993 14.30866064 23.26801217
C 12.43831941 16.11317069 21.46338878
C  7.0487917  14.33426376 21.46446418
C  7.93419101 15.22127239 22.38355114
C  7.04668912 16.14032782 23.2710693 
C  7.93719796 17.03032326 24.1946353 
C  8.85327678 14.33425569 23.26893412
C  9.74339167 15.22410161 24.19153318
C  8.84083467 16.12668387 21.47690208
C  9.74624128 17.03331926 22.38354778
C  5.25247059 16.1265191  21.47672328
C  6.12310308 17.03034771 22.38054633
C 17.85314097 10.69803495 21.4625229 
C 14.25637613 10.7111064  21.47422698
C 15.16221438 11.61694994 22.38131058
C 14.24378225 12.50348648 23.26756368
C 16.04872653 10.69850833 23.26744591
C 16.04824663 12.50292166 21.46251125
C 10.65955308 10.72415247 21.46280284
C 11.54547079 11.61025975 22.38159523
C 10.65882683 12.52880905 23.26802925
C 11.54878864 13.41869535 24.19071161
C 12.4639731  10.7237061  23.26757836
C 13.35388703 11.6135823  24.19030799
C 12.45135851 12.51612735 21.47454991
C 13.35722454 13.42199551 22.38159497
C  8.85431417 12.52919096 21.46339772
C  9.7401437  13.41550101 22.38223428
C 21.46336658  7.08807688 21.46336696
C 17.86632312  7.10113485 21.47454837
C 18.77219816  8.00699817 22.38160416
C 17.85370722  8.89355535 23.26757646
C 19.6588491   7.08844561 23.26802151
C 19.6581382   8.89312311 21.46280718
C 14.26942602  7.11432714 21.4625356 
C 15.15545123  8.00030256 22.38132844
C 14.26894639  8.91872759 23.26743807
C 15.15883597  9.80861333 24.19019171
C 16.07390224  7.11375355 23.26760324
C 16.9637948   8.00366109 24.19032607
C 16.06131456  8.90614982 21.4742337 
C 16.96716271  9.81199543 22.38132358
C 12.46454067  8.91923591 21.46252072
C 13.35051853  9.80525232 22.3813219 
C 25.06522306  3.49078145 21.47666883
C 21.47685703  3.49059791 21.47685834
C 22.38349291  4.39599661 22.38349473
C 21.46438807  5.28301769 23.26888465
C 23.27099594  3.47695943 23.2709987 
C 23.26888378  5.28301727 21.46439037
C 17.87937272  3.50408719 21.46337771
C 18.76567733  4.38992076 22.38221505
C 17.87898842  5.30859998 23.26801604
C 18.76887859  6.19855939 24.19071187
C 19.68443484  3.5030521  23.26890472
C 20.57427861  4.39316578 24.19149591
C 19.67152508  5.29593656 21.47524867
C 20.57753555  6.20176165 22.38220124
C 16.07432613  5.3093267  21.46281894
C 16.96045521  6.19524658 22.38160664
C 21.46440454  1.69856378 19.6844454 
C 22.38349746  2.58395193 20.5714485 
C 17.86627909 -0.09574598 17.86627861
C 18.76889421  0.77674473 18.76889414
C 17.87900546  1.69945049 19.65886859
C 18.76568566  2.58524864 20.57754846
C 19.67143869 -0.09629798 19.67143955
C 20.57429108  0.77595613 20.57429238
C 19.65886962  1.69945    17.87900583
C 20.57754907  2.58524817 18.76568651
C 16.07391914  1.69990171 17.85372592
C 16.96047242  2.585865   18.77221659
C 14.24380125 17.91736902 17.85371502
C 10.65884376 17.91782992 17.87903511
C 11.54881924 18.8405187  18.76892662
C 10.64628992 19.71357573 19.67148368
C 12.43870723 17.91782087 19.65889111
C 12.45143508 19.71302818 17.86630616
C  8.85329665 17.9187198  19.68448672
C  9.74341669 18.84131702 20.57434746
C 17.85289259 14.30741483 17.85288803
C 14.2557209  14.3196875  17.86541979
C 15.16197252 15.22618652 18.7717274 
C 14.24336159 16.11259052 19.65813639
C 16.04812498 14.30755155 19.65774285
C 16.04824686 16.11231308 17.85313203
C 10.64731518 14.32022403 17.86687268
C 11.54891734 15.22281319 18.76879394
C 10.64616739 16.12508313 19.67156004
C 11.55202384 17.03201459 20.57757633
C 12.45084017 14.32020853 19.67040722
C 13.35707053 15.22660965 20.57683455
C 12.45136834 16.12435897 17.86634701
C 13.35724128 17.03140239 18.77221629
C  7.0496965  14.30872156 17.87904646
C  7.93550031 15.22737364 18.76573413
C  7.04879559 16.11424078 19.68449549
C  7.93420768 17.03333828 20.57150229
C  8.84244598 14.3213701  19.6715716 
C  9.74368775 15.22381617 20.57403979
C  8.85432946 16.11319806 17.87942249
C  9.74016174 17.03203531 18.76573347
C  5.25394144 14.32128009 19.67148558
C  6.12618701 15.22412994 20.57434107
C 21.46252628 10.69803423 17.8531401 
C 17.86508658 10.71016144 17.86508292
C 18.77147653 11.61650303 18.77147332
C 17.85290787 12.50269381 19.65761894
C 19.65777008 10.69792428 19.65776792
C 19.65762258 12.50269358 17.85290472
C 14.25650614 10.71100557 17.8655398 
C 15.15845833 11.61303491 18.76773079
C 14.25572417 12.51521864 19.66988394
C 15.16197074 13.42152905 20.57639346
C 16.06056181 10.71035534 19.66972869
C 16.96683765 11.61662904 20.57625926
C 16.06037602 12.51487933 17.86508614
C 16.9667067  13.42127359 18.77146402
C 10.64781507 10.71180653 17.86543987
C 11.54961313 11.61380892 18.76807974
C 10.64730121 12.51665658 19.67041385
C 11.54891103 13.41858526 20.57301717
C 12.45225318 10.71178353 19.66989468
C 13.3539334  11.61355156 20.57250255
C 12.45178351 12.51571403 17.86591311
C 13.35370004 13.41788719 18.76807512
C  7.05012264 10.72375206 17.85373193
C  7.93610075 11.61029284 18.77222734
C  7.04966711 12.52883261 19.65890097
C  7.93548427 13.41551162 20.57759337
C  8.85488282 10.72417032 19.65815103
C  9.74086558 11.61043408 20.57684089
C  8.84315345 12.51617168 17.86634428
C  9.74468208 13.4186053  18.76880149
C  5.25449508 12.516131   17.86629758
C  6.12697968 13.41874539 18.7689314 
C 25.06322115  7.10118261 17.8662694 
C 21.47455097  7.10113398 17.86632345
C 22.38160622  8.00699733 18.77219898
C 21.46280879  8.89312271 19.65813806
C 23.26802258  7.08844479 19.65885092
C 23.26757944  8.89355418 17.85370846
C 17.86591006  7.1015672  17.86590746
C 18.76807964  8.00348134 18.76807751
C 17.86542466  8.90549081 19.66988511
C 18.7717393   9.81175526 20.57641305
C 19.67040175  7.10062167 19.67040062
C 20.57682971  8.00684154 20.57682909
C 19.66988826  8.90549034 17.86542302
C 20.57641567  9.81175483 18.77173812
C 14.25733038  7.10240366 17.86509731
C 15.15921725  8.00424266 18.76774363
C 14.2571456   8.90692716 19.66972639
C 15.15883598  9.80862348 20.57234885
C 16.0619654   7.10203456 19.66989981
C 16.96375837  8.00371457 20.57251075
C 16.06120047  8.90628322 17.86554171
C 16.9632491   9.80824736 18.7677383 
C 10.66006672  7.11461491 17.85291043
C 11.54619722  8.00080629 18.77147628
C 10.6599312   8.91937247 19.65775749
C 11.54593795  9.80551408 20.57640309
C 12.46476299  7.11458531 19.65764003
C 13.35084578  8.00065158 20.57627633
C 12.4526065   8.90713685 17.86508969
C 13.35444998  9.80902048 18.76774151
C  8.85517462  8.91927906 17.85313962
C  9.74128624  9.80553566 18.7717404 
C 25.06375602  5.29602066 19.67141897
C 21.46337928  3.50408629 17.879374  
C 22.38221615  4.38991987 18.76567913
C 21.47524928  5.29593613 19.6715259 
C 22.38220133  6.20176122 20.57753689
C 23.26890485  3.50305124 19.68443756
C 24.19149554  4.39316492 20.57428187
C 23.26801816  5.30859869 17.8789907 
C 24.19071345  6.19855813 18.7688814 
C 17.86633704  3.49293547 17.86633548
C 18.76877762  4.39445912 18.76877652
C 17.86684815  5.29708979 19.67039795
C 18.76876742  6.19867828 20.57300847
C 19.67153685  3.49220058 19.67153672
C 20.57399859  4.39345884 20.57399895
C 19.67040001  5.29708934 17.86684751
C 20.57301006  6.19867782 18.76876727
C 14.26943984  3.50496225 17.85315819
C 15.15569231  4.39107721 18.77175599
C 14.26953884  5.30971842 19.65777749
C 15.15568769  6.19571634 20.57641596
C 16.07433183  3.50465523 19.65816253
C 16.96062154  4.39064243 20.57684505
C 16.06197822  5.29761029 17.86543719
C 16.96399939  6.19938167 18.76808017
C 12.46477377  5.30988618 17.85291769
C 13.35097124  6.19600078 18.77148778
C 17.85372841  1.69990116 16.07391814
C 18.77221864  2.5858645  16.96047189
C 14.25641354 -0.09543392 14.25641016
C 15.15885891  0.7773057  15.15885595
C 14.26897169  1.7000677  16.04874861
C 15.15546904  2.5861675  16.96718289
C 16.06131009 -0.09546803 16.06130819
C 16.96381603  0.77715229 16.96381458
C 16.04875271  1.70006709 14.26896923
C 16.96718648  2.58616695 15.15546711
C 12.46400021  1.69995859 14.24379985
C 13.35054203  2.58619275 15.16223277
C 17.85372222 17.91736773 14.24379487
C 14.26895287 17.91725629 14.26894527
C 15.15884157 18.84000503 15.15883321
C 14.25639464 19.71277354 16.06129507
C 16.04873796 17.91724331 16.04873046
C 16.06130227 19.71277317 14.2563866 
C 12.46397278 17.91740672 16.07392646
C 13.35389862 18.84013295 16.96381471
C 21.46279088 14.3079176  14.24334249
C 17.86542699 14.31968643 14.255715  
C 18.77173394 15.22618559 15.16196753
C 17.85313915 16.11231249 16.04824193
C 19.65774847 14.30755075 16.0481209 
C 19.65814299 16.11258919 14.24335607
C 14.25715666 14.31954746 14.25714977
C 15.15883844 15.22215065 15.15883277
C 14.2563826  16.12405172 16.0613175 
C 15.16222015 17.03112193 16.96716026
C 16.06056231 14.31953661 16.06055651
C 16.96683358 15.2260482  16.96682787
C 16.06132732 16.12404892 14.25637814
C 16.96716773 17.03112088 15.16221413
C 10.65995817 14.30760414 14.26958304
C 11.54594999 15.22622375 15.15572223
C 10.6595604  16.11263339 16.07436955
C 11.54548439 17.03142252 16.96049285
C 12.45226757 14.31971223 16.06198991
C 13.35393868 15.22230992 16.96376675
C 12.46454827 16.11235103 14.26945438
C 13.35052438 17.03114528 15.15546178
C  8.85490556 14.30799202 16.0743772 
C  9.74087345 15.22665037 16.96066985
C 25.06295196 10.71107015 14.256384  
C 21.47423354 10.71110436 14.25637534
C 22.38131647 11.61694807 15.16221397
C 21.4625167  12.50292038 16.04824508
C 23.26745095 10.69850665 16.04872718
C 23.2675705  12.5034843  14.24378217
C 17.86554607 10.71100434 14.25650227
C 18.76773654 11.61303398 15.15845488
C 17.86509088 12.51487927 16.06037119
C 18.77146866 13.42127334 16.96670248
C 19.66973347 10.71035454 16.0605594 
C 20.5762636  11.61662825 16.96683571
C 19.66989097 12.5152169  14.25572103
C 20.57639982 13.42152754 15.1619681 
C 14.25671581 10.7108244  14.25670868
C 15.15884429 11.61308906 15.15883816
C 14.2565102  12.51534252 16.0611982 
C 15.1584602  13.41754477 16.96324141
C 16.0610016  10.71080169 16.06099646
C 16.96307273 11.61286007 16.96306806
C 16.06120437 12.5153419  14.25650369
C 16.96324729 13.4175447  15.15845424
C 10.64799298 10.71040873 14.25715488
C 11.54996277 11.61307779 15.15922641
C 10.64781816 12.51526876 16.06198215
C 11.54961904 13.41790367 16.96401317
C 12.45215634 10.71102986 16.06120608
C 13.35423751 11.61327561 16.96347263
C 12.45261456 12.51491546 14.25733897
C 13.35446007 13.41756533 15.15922269
C  7.05025859 10.69861666 14.26896017
C  7.93638886 11.61703928 15.15546931
C  7.05011741 12.50357411 16.07392875
C  7.93611331 13.42206107 16.9605022 
C  8.84346845 10.7111668  16.06133545
C  9.74519038 11.61359674 16.96377494
C  8.85518135 12.50299462 14.26945939
C  9.7413019  13.42159423 15.15572922
C  5.2547446  10.71118254 16.06130038
C  6.12737193 11.61366496 16.96381577
C 25.06296693  8.90615991 16.06129499
C 21.46254123  7.11432533 14.26942638
C 22.3813335   8.00030076 15.15545211
C 21.47423818  8.90614854 16.06131431
C 22.3813275   9.81199419 16.96716292
C 23.26760737  7.11375187 16.07390405
C 24.19032961  8.00365945 16.96379713
C 23.26744438  8.91872534 14.26894773
C 24.19019733  9.8086112  15.15883777
C 17.86510304  7.10240255 14.25732783
C 18.76774878  8.00424155 15.15921519
C 17.86554642  8.90628261 16.06119747
C 18.76774247  9.80824684 16.96324647
C 19.66990393  7.1020336  16.06196429
C 20.57251434  8.00371361 16.96375773
C 19.66973231  8.90692571 14.25714385
C 20.57235421  9.808622   15.15883476
C 14.25651936  7.10197427 14.25651343
C 15.15884983  8.00422727 15.15884461
C 14.2567116   8.90650349 16.06100274
C 15.15884132  9.80863675 16.96329069
C 16.06120905  7.10195393 16.06120496
C 16.96347738  8.00402634 16.96347378
C 16.06100933  8.9065025  14.25670717
C 16.96329647  9.808636   15.15883731
C 10.64782724  7.10210168 14.25573814
C 11.54996175  8.00429027 15.15846465
C 10.64798348  8.90696609 16.06056719
C 11.54995274  9.80904496 16.96325308
C 12.45260292  7.10241887 16.06038616
C 13.35463031  8.00444036 16.96307929
C 12.45216226  8.9063237  14.25651246
C 13.35442265  9.8086608  15.15884432
C  7.05012647  7.11384382 14.24380241
C  7.9363861   8.00039063 15.16222684
C  7.05025957  8.91880917 16.04874515
C  7.93638398  9.8053121  16.96717571
C  8.85517033  7.11439914 16.04825775
C  9.74143059  8.00070097 16.9668395 
C  8.84348489  8.90623325 14.2563873 
C  9.74535192  9.80869113 15.15884569
C  5.25475352  8.90627407 14.25638654
C  6.12749564  9.80872284 15.15883943
C 21.46282256  5.30932534 16.07432697
C 22.38160974  6.19524524 16.96045657
C 17.85316273  3.50496121 14.26943832
C 18.77176008  4.39107621 15.15569132
C 17.86544072  5.29760984 16.0619761 
C 18.76808323  6.19938118 16.96399778
C 19.65816553  3.50465429 16.07433171
C 20.57684762  4.39064149 16.96062193
C 19.65778266  5.30971694 14.26953829
C 20.57642059  6.19571486 15.15568767
C 14.25640216  3.49329098 14.25639741
C 15.15885605  4.3951593  15.1588519 
C 14.25715464  5.2977945  16.06057104
C 15.15922217  6.19974071 16.96325882
C 16.06133254  3.49324746 16.06132949
C 16.9637713   4.39497566 16.96376874
C 16.06057615  5.29779403 14.25715094
C 16.96326342  6.19974019 15.15921907
C 10.65957813  3.5047347  14.24336816
C 11.54595416  4.39113397 15.16198704
C 10.65994329  5.3097777  16.04814215
C 11.54620607  6.19603263 16.96671441
C 12.46455039  3.50498869 16.04826415
C 13.3508529   4.39124364 16.96685586
C 12.45227981  5.29765547 14.25573398
C 13.35446617  6.19976302 15.15846906
C  8.85490875  5.30941425 14.24337133
C  9.74130345  6.19578977 15.161984  
C 14.243806    1.69995774 12.46399603
C 15.16223814  2.58619214 13.3505385 
C 10.64628477 -0.09622532 10.6462767 
C 11.54881639  0.776824   11.54880913
C 10.65885474  1.69952312 12.43869818
C 11.54549696  2.58593393 13.35724071
C 12.4514309  -0.09567027 12.45142556
C 13.35391301  0.77720257 13.35390827
C 12.43870715  1.69952194 10.65884804
C 13.35724855  2.58593302 11.54549119
C  8.85330576  1.69862872 10.63327106
C  9.74017384  2.58531869 11.55202387
C 21.46445832 17.91870588 10.6332686 
C 17.87904644 17.91782487 10.65883433
C 18.76893674 18.84051617 11.54881247
C 17.86631368 19.71302412 12.45142633
C 19.65889934 17.91781896 12.43870036
C 19.67149456 19.71357233 10.64628264
C 16.07393218 17.91740448 12.46396715
C 16.96382258 18.84013099 13.35389031
C 25.06378507 14.32122821 10.64625311
C 21.47528243 14.32134623 10.64615804
C 22.38223488 15.22733378 11.55200549
C 21.46339759 16.11316795 12.43831566
C 23.26802072 14.30865757 12.43867886
C 23.26894973 16.11420455 10.63325   
C 17.86688236 14.32022022 10.64730888
C 18.76880369 15.22281115 11.54891243
C 17.86635255 16.12435913 12.4513593 
C 18.77222353 17.03140141 13.35723494
C 19.67041521 14.32020646 12.45083535
C 20.57684245 15.22660758 13.35706675
C 19.67157068 16.12507967 10.64616166
C 20.57758643 17.03201158 11.55201827
C 14.26959493 14.30759968 10.65994763
C 15.15573356 15.22622149 11.54594134
C 14.26946411 16.11234897 12.46453911
C 15.15547305 17.03114682 13.35051345
C 16.06199809 14.3197108  12.45225967
C 16.96377447 15.22230836 13.35393248
C 16.07437942 16.11262927 10.65955149
C 16.96050382 17.03141616 11.54547499
C 12.46480667 14.30746501 12.46479876
C 13.35087026 15.22608668 13.35086065
C 25.06320701 12.51606359 12.45141747
C 21.46281261 10.72414913 10.65955228
C 22.38160397 11.61025677 11.54547044
C 21.47455801 12.51612462 12.45135701
C 22.38160248 13.4219931  13.35722326
C 23.26758644 10.72370336 12.46397386
C 24.19031539 11.61357969 13.35388817
C 23.26803909 12.52880517 10.65882663
C 24.19072067 13.41869196 11.54878869
C 17.86544997 10.71180316 10.64781061
C 18.76808858 11.6138058  11.54960915
C 17.86592178 12.51571136 12.45177876
C 18.76808331 13.4178849  13.35369567
C 19.66990277 10.71178105 12.45225063
C 20.57250989 11.61354902 13.35393148
C 19.67042355 12.51665319 10.64729778
C 20.57302597 13.41858225 11.54890826
C 14.25716468 10.71040635 10.64798471
C 15.15923591 11.61307607 11.54995624
C 14.25734439 12.51491676 12.45260396
C 15.15923005 13.41756517 13.35445282
C 16.0612136  10.71102831 12.45215043
C 16.96348024 11.61327396 13.3542323 
C 16.06199359 12.51526439 10.64781256
C 16.96402313 13.41790037 11.54961277
C 10.65996219 10.69798346 10.65994986
C 11.54623137 11.61655345 11.54621934
C 10.66009498 12.50274724 12.46479487
C 11.54622532 13.42132419 13.351     
C 12.45262199 10.71021091 12.45261248
C 13.35464246 11.61289704 13.35463417
C 12.46480546 12.50274565 10.6600849 
C 13.35101181 13.42131933 11.54621445
C  8.85518663 10.69811339 12.46455268
C  9.7414443  11.6166942  13.35086784
C 21.46252861  8.91923334 12.46454051
C 22.38132902  9.80524983 13.35051887
C 17.85291945  7.11461264 10.66006393
C 18.77148443  8.00080408 11.54619515
C 17.86509701  8.90713526 12.45260303
C 18.76774844  9.8090187  13.35444711
C 19.6576471   7.11458345 12.46476188
C 20.5762829   8.00064955 13.35084523
C 19.65776719  8.91936938 10.6599292 
C 20.57641174  9.80551104 11.54593661
C 14.25574933  7.10209958 10.64782021
C 15.15847386  8.00428864 11.54995584
C 14.25652145  8.90632256 12.45215544
C 15.15885229  9.80865941 13.35441686
C 16.06039379  7.10241755 12.45259861
C 16.96308619  8.00443898 13.35462668
C 16.06057678  8.90696382 10.64797761
C 16.96326162  9.80904298 11.54994793
C 10.64732367  7.10069533 10.64731172
C 11.54963273  8.00354462 11.5496238 
C 10.64783372  8.90556125 12.45226914
C 11.54996526  9.80829921 13.35446232
C 12.45179803  7.10162076 12.45178913
C 13.3542463   8.00406431 13.35423852
C 12.45228263  8.9055583  10.64782579
C 13.35447283  9.80829739 11.54995667
C  7.04970764  7.08852352 10.65884483
C  7.93613191  8.00708172 11.54548965
C  7.05013875  8.89364582 12.46397213
C  7.93639443  9.81208295 13.35052466
C  8.84316634  7.1012075  12.45137415
C  9.74519793  8.00378628 13.35394682
C  8.85491899  8.8931922  10.65957135
C  9.74131561  9.81182119 11.54595469
C  5.25451102  7.10127047 12.45142169
C  6.12737912  8.00376183 13.35389766
C 17.85292458  5.30988451 12.46477182
C 18.77149406  6.19599915 13.35096986
C 14.24337715  3.50473304 10.65957292
C 15.16199495  4.39113288 11.54594981
C 14.25574112  5.29765501 12.45227399
C 15.15847546  6.19976248 13.35446127
C 16.04827045  3.50498759 12.4645473 
C 16.96686162  4.39124257 13.35085048
C 16.04815143  5.30977553 10.65993935
C 16.96672266  6.1960307  11.54620317
C 10.64618868  3.4922699  10.64617873
C 11.54893627  4.39452819 11.54892719
C 10.64732449  5.29714963 12.45085656
C 11.54963009  6.1994424  13.35371257
C 12.45137996  3.49297941 12.45137271
C 13.35395573  4.3950193  13.35394956
C 12.45086679  5.29714896 10.64731566
C 13.35372162  6.19944202 11.54962235
C  7.04880255  3.50311417 10.63327971
C  7.9355071   4.38998401 11.55203317
C  7.0497023   5.30866999 12.43871885
C  7.93612028  6.19532314 13.35724883
C  8.85433477  3.50415334 12.43832954
C  9.7408805   4.39071424 13.35708589
C  8.84247124  5.29601115 10.64618294
C  9.7447063   6.19874489 11.54892911
C  5.25396645  5.29610826 10.64628879
C  6.12700554  6.19864171 11.54881427
C 10.63328222  1.69862798  8.85329639
C 11.55203451  2.58531748  9.74016541
C  7.03225881 -0.10306913  7.03224298
C 7.93722507 0.77293441 7.93721237
C 7.04671852 1.69652096 8.82722107
C 7.93421731 2.5840156  9.74625338
C  8.84103995 -0.09771677  8.84102842
C 9.74341627 0.77601819 9.74340638
C 8.82723333 1.69652013 7.0467068 
C 9.74626632 2.58401462 7.93420597
C 5.24711468 1.68210618 7.03225137
C 6.12312167 2.58704755 7.93721491
C 25.07066818 17.93528446  7.03224201
C 21.4905525  17.92084471  7.04669885
C 22.38056116 18.84442044  7.93720767
C 21.47673302 19.71505969  8.84103943
C 23.27106599 17.9208197   8.82721348
C 23.28550831 19.72044661  7.03225879
C 19.68450056 17.91871761  8.8532895 
C 20.57435809 18.84131273  9.74341021
C 25.0652905  16.1264823   8.84101246
C 21.46447669 14.33425819  7.04878958
C 22.38356284 15.22126695  7.93418943
C 21.47691576 16.12667697  8.84083409
C 22.38355863 17.03331423  9.74623853
C 23.26894583 14.33425037  8.85327554
C 24.19154396 15.2240971   9.74339082
C 23.27107881 16.14032414  7.04668544
C 24.19464571 17.03031863  7.93719585
C 17.87905938 14.30871744  7.04969041
C 18.76574643 15.22737024  7.93549536
C 17.87943411 16.11319411  8.85432281
C 18.76574192 17.03203164  9.74015791
C 19.67158314 14.32136614  8.84244173
C 20.57404986 15.22381149  9.74368339
C 19.68450935 16.11423684  7.04879067
C 20.57151616 17.03333691  7.93420105
C 16.07438827 14.30798765  8.8548971 
C 16.9606799  15.22664617  9.74086648
C 21.46340875 12.52918665  8.85431248
C 22.38224489 13.41549708  9.74014212
C 17.85374601 10.7237478   7.0501179 
C 18.77223949 11.61028896  7.9360966 
C 17.86635531 12.51616764  8.84314827
C 18.76881168 13.41860177  9.74467735
C 19.65816251 10.72416658  8.85488017
C 20.57685118 11.61043043  9.74086356
C 19.65891357 12.52882796  7.04966344
C 20.57760504 13.41550723  7.93548124
C 14.26897138 10.69861204  7.05025156
C 15.15548241 11.61703485  7.93637975
C 14.26947036 12.50299098  8.85517292
C 15.15573884 13.42159224  9.74129491
C 16.06134718 10.71116363  8.84346197
C 16.96378601 11.61359309  9.74518369
C 16.0739412  12.50356832  7.05010943
C 16.96051373 13.42205681  7.93610665
C 12.46456266 10.69811104  8.85517805
C 13.35087971 11.61669139  9.74143407
C 17.85315144  8.91927552  8.85517025
C 18.77175091  9.80553175  9.74128267
C 14.24381759  7.11383878  7.05011855
C 15.16223912  8.00038736  7.93638118
C 14.25639873  8.90623075  8.84347704
C 15.15885669  9.80868858  9.74534498
C 16.04826925  7.11439635  8.8551644 
C 16.96685012  8.00069794  9.74142646
C 16.04875783  8.91880636  7.050252  
C 16.96718857  9.8053083   7.93637855
C 10.65886369  7.08852275  7.04969362
C 11.54550566  8.0070793   7.93611776
C 10.65958695  8.89319135  8.85490504
C 11.54597128  9.81182232  9.74129998
C 12.45138875  7.10120513  8.84315684
C 13.35395739  8.0037842   9.74519048
C 12.4639898   8.89364236  7.05012532
C 13.35054422  9.81207915  7.93637789
C 8.85434983 7.08814386 8.85433537
C 9.74089785 8.00691173 9.74088388
C 14.24338371  5.309411    8.85490217
C 15.16199551  6.19578729  9.74129763
C 10.63329381  3.50311281  7.04879198
C 11.55204678  4.38998249  7.93549708
C 10.64619456  5.29601151  8.84245894
C 11.54894122  6.19874464  9.74469573
C 12.43834102  3.50415178  8.85432706
C 13.35709692  4.39071264  9.74087348
C 12.43873449  5.30866604  7.04969336
C 13.35726329  6.19531971  7.93611199
C 7.04671795 3.47703347 7.04670399
C 7.9342289  4.39607874 7.93421527
C 7.04883281 5.28309975 8.85330278
C 7.93552853 6.20183642 9.74016866
C 8.84086335 3.4906741  8.84085125
C 9.74371273 4.39352158 9.74370025
C 8.85331809 5.28309914 7.04881925
C 9.74018152 6.20183396 7.93551758
C 5.25248801 3.49086604 8.84103339
C 6.12620772 4.39324454 9.74341935
C 7.03227394 1.68210986 5.24709547
C 7.93722896 2.58704585 6.12310753
C 6.13929382 0.7891377  6.13927924
C 23.285512   17.93529831  5.24708783
C 24.17847494 18.82825711  6.13928003
C 21.47673785 16.12650932  5.25246464
C 22.38056235 17.03033712  6.12309516
C 19.6714999  14.32127451  5.25393692
C 20.57435548 15.22412403  6.12618257
C 17.86631211 12.51612606  5.25448933
C 18.76894495 13.41874067  6.1269748 
C 16.06131919 10.71117566  5.2547357 
C 16.96383054 11.61365949  6.12736486
C 14.25640737  8.90626483  5.25474115
C 15.15886031  9.80871336  6.12748206
C 12.45144078  7.10126467  5.25449868
C 13.35391673  8.00375551  6.12736662
C 10.64630564  5.29610676  5.25395517
C 11.54883008  6.19863959  6.12699525
C 8.84105015 3.49086487 5.25247573
C 9.7434347  4.39324334 6.12619607
H 23.91299177  2.31570683 25.73040897
H 22.65172375  1.05445977 25.73040455
H  7.66597116 18.56283165 25.73044861
H  6.40470187 17.30158315 25.73046419
H 11.27705965 14.95165333 25.72485281
H 10.01583077 13.69041801 25.72485486
H  9.47226098 16.75646912 25.72639847
H  8.21102577 15.49526241 25.72640661
H 14.88703317 11.34164656 25.72402672
H 13.62579047 10.0804293  25.72402818
H 13.0821424  13.14658015 25.72427637
H 11.82091298 11.88536075 25.72429183
H 18.49679016  7.73190219 25.72429193
H 17.23554682  6.47068016 25.72430396
H 16.69187537  9.53681834 25.72403785
H 15.43065039  8.27558101 25.72404822
H 20.84543966  2.86080973 25.72636122
H 22.10665298  4.12201879 25.72634881
H 20.30183702  5.92682754 25.72483414
H 19.04061265  4.66558946 25.72483717
H 25.7304054   2.3157064  23.91299677
H 25.73040168  1.05445903 22.65172905
H 22.10665857 -0.75889365 20.84544825
H 20.84544537 -0.75889334 22.10666047
H 20.84522192  1.05306749 23.9143912 
H 22.65173318 -0.76295753 23.91300638
H 23.91300307 -0.76295784 22.65173749
H 24.81924303  0.1482379  24.81924782
H 23.91438978  1.05306674 20.84522579
H 19.0398852   1.05496397 22.1081667 
H 11.27780343 18.56230783 22.10822477
H  7.66599387 20.38022393 23.91306119
H  9.4725045  18.56419558 23.91443411
H  9.47229629 20.37615654 22.10672263
H  4.58728555 17.3015984  23.91304372
H 14.8875346  14.95179755 22.10655507
H 11.27779127 16.75797115 23.91254168
H 13.08308578 14.95264701 23.91154815
H 13.08262122 16.75692218 22.10716237
H  6.40520741 13.6897011  22.10822889
H  6.40331252 15.49505409 23.91445379
H  8.20952236 13.68969688 23.91253008
H  4.59133306 15.49530244 22.10671148
H 18.49714353 11.34210676 22.1062943 
H 14.88808088 13.14761271 23.91106974
H 16.69295378 11.34270674 23.9109502 
H 16.69233833 13.14692843 22.10627025
H 10.01565739 10.07995543 22.1065648 
H 10.01481058 11.88443347 23.91156452
H 11.81986736 10.07939005 23.91108788
H  8.21054824 11.88491871 22.10717568
H 22.1071401   7.7323569  22.10714085
H 18.49783042  9.53784909 23.91108823
H 20.3028331   7.73284724 23.91156238
H 20.30200445  9.53731375 22.10659036
H 13.62530659  6.47035732 22.10629937
H 13.62471755  8.27451879 23.910935  
H 15.42960943  6.46963973 23.91112156
H 11.82055699  8.27513695 22.10628458
H 25.72634713  4.12201792 22.10665755
H 25.72636025  2.86080856 20.84544453
H 22.10815409  5.92756142 23.9124817 
H 23.91436997  4.12225185 23.91437309
H 23.91248046  5.92756099 22.10815676
H 17.2350804   2.86034336 22.10715787
H 17.23459978  4.6645923  23.91155085
H 19.03986914  2.85931288 23.91250728
H 15.43016279  4.6654189  22.10659508
H 22.10816668  1.05496318 19.03988763
H 18.49679546 -0.75681604 17.2355538 
H 17.23555361 -0.75681566 18.49679471
H 17.234601    1.05590229 20.30284551
H 19.04063158 -0.7573796  20.30185774
H 20.30185718 -0.75737994 19.04063308
H 20.30284687  1.05590144 17.23460205
H 15.42963514  1.05637942 18.49785364
H 14.88810263 18.56087658 18.49783388
H 11.27710517 20.37462857 20.30191375
H 13.08312409 18.5613582  20.30286438
H 13.0821785  20.3740713  18.49683539
H 18.49688701 14.95129132 18.49688253
H 14.88756577 16.75635307 20.30200548
H 16.69223319 14.95144169 20.30160569
H 16.69234636 16.75606241 18.49713281
H  4.59285747 13.69046625 20.30189637
H 22.1062973  11.3421061  18.49714299
H 18.49690844 13.14670968 20.30147226
H 20.30165003 11.34201832 20.3016482 
H 20.30147558 13.1467096  18.49690547
H  6.40662492 10.0794356  18.49785071
H  6.40613391 11.88443687 20.30289148
H  8.21111277 10.07995922 20.30201088
H  4.59340233 11.88542199 18.49680417
H 25.7242941   7.73190056 18.49679391
H 25.72430694  6.47067824 17.23555086
H 22.10659159  9.53731335 20.30200468
H 23.91156306  7.73284641 20.30283532
H 23.91109077  9.53784794 18.49783206
H 10.01616207  6.47064413 18.49690608
H 10.01602352  8.2752675  20.30161061
H 11.82075904  6.47059718 20.30150847
H  8.21141937  8.27518194 18.49713077
H 25.72483438  5.92682625 20.3018412 
H 25.72483815  4.66558788 19.04061711
H 22.10715978  2.86034211 17.23508238
H 23.91250777  2.85931169 19.03987256
H 23.91155335  4.66459068 17.23460278
H 13.62531789  2.86123242 18.49715398
H 13.62541672  4.66581767 20.30162682
H 15.43014583  2.86089204 20.30204453
H 11.82079127  4.66598919 18.49690945
H 18.49785646  1.05637847 15.42963488
H 14.88705743 -0.75650804 13.62581632
H 13.6258188  -0.75650742 14.88705379
H 13.62473679  1.0565654  16.69295693
H 15.43066258 -0.75655182 16.69188495
H 16.69188712 -0.75655227 15.43066143
H 16.69296141  1.05656434 13.62473516
H 11.81989294  1.05643747 14.88810358
H 18.49784087 18.56087618 14.88809549
H 14.88706231 20.37383065 16.69188515
H 16.69295653 18.56074226 16.69294853
H 16.69189315 20.37382916 14.88705443
H 22.10656151 14.95179608 14.88753225
H 18.49713994 16.75606167 16.6923416 
H 20.30161092 14.95144107 16.69222932
H 20.3020114 16.7563526 14.88756  
H 25.72403283 11.34164423 14.88703579
H 25.72403521 10.08042655 13.62579342
H 22.10627529 13.14692722 16.69233713
H 23.91095474 11.34270512 16.69295483
H 23.91107594 13.14761073 14.88808116
H  4.59364816 10.08052956 16.69187276
H 25.72404207  9.53681632 16.69187866
H 25.72405332  8.27557861 15.430654  
H 22.10630538  6.4703551  13.62530773
H 23.91112608  6.4696377  15.429612  
H 23.9109417   8.27451613 13.62471971
H  6.4066247   6.46973551 14.88811734
H  6.40676893  8.27458528 16.69296248
H  8.21140344  6.47042122 16.69235825
H  4.59365977  8.27569921 14.88703258
H 22.10659907  4.66541716 15.43016439
H 18.49715892  2.86123097 13.62531718
H 20.30204789  2.86089071 15.43014645
H 20.30163239  4.66581576 13.62541699
H 10.01566984  2.86099588 14.88756073
H 10.0160467   4.66588474 16.69223046
H 11.82055343  2.86124849 16.69236989
H  8.21114964  4.66551589 14.88755606
H 14.88811029  1.05643604 11.81988988
H 11.27708419 -0.75730697 10.01585113
H 10.01585802 -0.75730632 11.27707563
H 10.0148482   1.0559875  13.08309732
H 11.82092249 -0.7567523  13.08214265
H 13.08214831 -0.75675314 11.82091837
H 13.08310693  1.05598555 10.01484285
H  8.20953818  1.05501628 11.27780065
H 22.10823537 18.56230423 11.27779939
H 18.49684028 20.3740711  13.08216878
H 20.30287232 18.56135622 13.08311746
H 20.30192542 20.37462532 11.27709692
H 25.72486266 14.95164948 11.27706012
H 25.72486542 13.69041325 10.0158321 
H 22.10717056 16.7569198  13.08261772
H 23.91155606 14.95264428 13.08308497
H 23.91255218 16.75796691 11.27779004
H 25.72428418 13.14657726 13.08214399
H 25.72430055 11.88535715 11.82091522
H 22.10657505 10.07995186 10.01565733
H 23.91109632 10.07938703 11.8198688 
H 23.91157484 11.88442907 10.0148114 
H 22.10629289  8.27513383 11.82055778
H 18.49691578  6.47064124 10.0161606 
H 20.30151592  6.47059486 11.82075877
H 20.30162078  8.27526349 10.01602287
H  4.59341689  6.47077233 13.08214165
H 18.49691687  4.66598703 11.82079033
H 14.88757057  2.86099378 10.01566592
H 16.69237675  2.86124697 11.82055133
H 16.69224082  4.66588193 10.01604446
H  6.40520604  2.85935769 11.27782501
H  6.4061827   4.66465885 13.08312194
H  8.21056703  2.86040903 13.08263415
H  4.59288068  4.66567797 11.27708185
H 11.27781225  1.05501465  8.20953005
H  7.66597044 -0.76287024  6.40470127
H  6.40471394 -0.76287358  7.66595054
H 6.40335155 1.05313531 9.47251169
H  8.21104929 -0.75883024  9.47226696
H  9.47228071 -0.75882889  8.21103858
H 9.47252547 1.05313461 6.40334119
H 4.58730135 1.05455957 7.66596177
H 25.73045929 18.56282745  7.66596777
H 25.73047652 17.30157624  6.40470065
H 22.10673575 20.37615037  9.47229328
H 23.91444413 18.56419151  9.47250097
H 23.91307075 20.38021854  7.66598655
H 25.72640862 16.75646485  9.47225794
H 25.72641688 15.49525709  8.2110237 
H 22.10824292 13.68969544  6.40520664
H 23.91254283 13.68969127  8.20952229
H 23.91446659 15.4950481   6.40331395
H 22.10718717 11.88491422  8.21054721
H 18.49786546 10.07943077  6.40662136
H 20.30202288 10.07995534  8.21111077
H 20.30290471 11.88443228  6.40613081
H 18.4971428   8.27517724  8.2114162 
H 14.88813603  6.46972981  6.4066207 
H 16.69237136  6.47041812  8.21139929
H 16.69297854  8.27457891  6.40676777
H 14.88756966  4.66551202  8.21114485
H 11.27783894  2.85935588  6.40519584
H 13.08264609  2.86040708  8.21056021
H 13.08313742  4.66465486  6.40617378
H 4.59135136 2.86089466 9.47226526
H 7.66598309 1.05455925 4.58728641
H 23.91306017 17.30159046  4.58728028
H 22.10672426 15.49528908  4.5913278 
H 20.30191112 13.69046035  4.59285362
H 18.49681976 11.88541755  4.59339716
H 16.69189546 10.08052647  4.59363824
H 14.88705348  8.27568674  4.59364941
H 13.08216015  6.47076291  4.59340772
H 11.27709912  4.66567665  4.59286996
H 9.47228331 2.86089315 4.5913407 
H  6.40332003 18.5642376  20.84527278
H  6.40471152 20.38023667 22.65177287
H  8.21105477 20.3761664  20.84547037
H  4.58730472 18.56285503 22.65177164
H  5.4984814  19.46906483 24.81928448
H  4.59133838 16.75649111 20.84548214
H 10.01486078 18.5613856  17.23464899
H 10.0158752  20.37468369 19.0406955 
H 11.82090422 20.37409125 17.23558816
H  8.20954707 18.56232853 19.0399365 
H  6.40614876 14.95273012 17.23468156
H  6.40518283 16.75799259 19.03995257
H  8.21055728 16.75694557 17.23513358
H  4.59284762 14.95170762 19.04069363
H  4.593411   13.14664522 17.23558201
H 13.62473024 18.56075154 13.62472324
H 13.62579106 20.37382798 15.43063858
H 15.43064786 20.37382897 13.62578218
H 11.81983222 18.56092265 15.42965342
H 10.01609123 14.95148727 13.62546473
H 10.0156553  16.75639564 15.43018558
H 11.82054745 16.75609517 13.62534332
H  8.21116617 14.95189111 15.43018397
H  6.40676132 11.34284356 13.62474672
H  6.40661155 13.14770136 15.42962568
H  8.21143653 13.14698298 13.62534201
H  4.59368942 11.34178366 15.43064348
H  4.59368451  9.53692215 13.62578589
H 17.23466813 18.56136987 10.01482821
H 17.23559543 20.37408325 11.82089197
H 19.04070535 20.37468012 10.01586878
H 15.42962994 18.56092    11.81985566
H 13.6254849  14.95147381 10.01605861
H 13.62535444 16.75609045 11.82053421
H 15.43019703 16.75639384 10.01564808
H 11.82080078 14.95134839 11.82082148
H 10.01606924 11.34207644 10.01605766
H 10.01621381 13.14675224 11.82079705
H 11.82081204 13.14675386 10.01620315
H  8.21143289 11.34221776 11.82056727
H  6.40616563  7.73289096 10.01482008
H  6.40665986  9.53795176 11.81982789
H  8.21116323  9.53737639 10.01566893
H  4.59342242  7.73196993 11.82089638
H  4.59287367  5.92691367 10.015874  
H 4.58733748 2.31583725 6.40470165
H 20.84525218 18.56423175  6.4033459 
H 20.84548507 20.37616682  8.21105034
H 22.65178362 20.38022634  6.40470301
H 19.03997317 18.56233611  8.20953157
H 17.23469527 14.95272563  6.40614142
H 17.23514521 16.7569414   8.21055039
H 19.03996579 16.75798584  6.40517504
H 15.43019653 14.95188794  8.21115707
H 13.62472827 11.34283725  6.40678289
H 13.62535514 13.14697867  8.21142492
H 15.42963997 13.14769525  6.40660152
H 11.82054741 11.34221626  8.21145435
H 10.01486228  7.73289796  6.40614165
H 10.01568415  9.53737368  8.21114706
H 11.81984832  9.53794812  6.40664319
H 8.21057702 7.73240534 8.2105604 
H 6.40333714 4.12231847 6.40332233
H 6.40521938 5.92762204 8.20953708
H 8.20955335 5.92762212 6.40520592
H 4.59135781 4.12209601 8.21104743
H 6.40471933 2.31583546 4.58731689
H 5.49848085 0.14832517 5.49848759
H 22.65178513 18.56284386  4.58729923
H 24.81929627 19.46905652  5.49847652
H 20.84549954 16.7564821   4.5913309 
H 19.04070863 14.95170208  4.59284251
H 17.23559684 13.14664008  4.59340476
H 15.43066148 11.34177569  4.59368078
H 13.62581037  9.53691283  4.59366897
H 11.82091795  7.73196362  4.59340695
H 10.01589058  5.92691191  4.59286227
H 8.21106544 4.12209414 4.59134366
