103
C 14.26718359  7.13363416 17.90236227
C 13.35402547  8.04676948 17.01198596
C 12.43940555  8.96138943 17.90291147
C 11.53656656  9.86419194 16.99779417
C 12.43941525 10.76922967 16.09493204
C 13.35405685  9.87830396 15.18033629
C 14.26717997 10.76866512 14.26716466
C 15.18034662  9.878285   13.35403715
C 16.0839716   8.95031864 14.25629057
C 15.18168399  8.04808053 15.18170978
C 14.26724517  7.13361244 14.2672708 
C 13.35276716  6.21916061 15.18177445
C 12.45044085  7.14453881 16.08402316
C 11.52244831  8.04677734 15.18042407
C 10.63208183  7.13366603 14.26727827
C 11.522533    6.22055222 13.35417796
C 12.45050885  5.31690609 14.25640289
C 13.35417013  4.38891545 13.35421951
C 14.26726698  3.49846153 14.26735007
C 15.18038084  4.38885302 15.1804728 
C 14.27813325  5.3168617  16.08405106
C 15.18034636  6.22047816 17.01201961
C 16.09493815  5.30582873 17.90295478
C 16.99779439  4.40296123 16.99794032
C 17.90283708  5.30579497 16.09506015
C 17.01193856  6.22044592 15.18043034
C 17.90229492  7.13356801 14.26723852
C 17.01195633  8.04672077 13.35405219
C 17.90289623  8.9613236  12.4394059 
C 16.99781087  9.8641374  11.53655546
C 16.09494427 10.76919503 12.4393998 
H 15.46475292 11.42052002 11.80826034
H 16.72606212 11.42055325 13.06957715
C 16.09502081  8.96131133 10.63143842
C 15.18043909  8.04673445 11.52244644
C 14.26729729  7.13361507 10.63208288
C 13.35417795  6.22052669 11.52254483
C 12.45052993  7.12273127 12.4505231 
C 13.35279368  8.04808755 13.35278609
C 12.45043843  8.9503413  14.27813653
H 11.81166738  9.58908513 13.637328  
C 14.27815454  8.95032016 12.45042007
H 13.63735875  9.58906166 11.81163385
H 11.81176963  7.76352026 11.81174756
C 14.25637226  5.3168784  12.4505481 
C 15.18173902  6.21913456 13.35280868
C 16.08397726  5.31682771 14.27820875
H 16.72272966  4.67804668 13.63741889
C 16.08400033  7.14448674 12.45046722
H 16.72275082  6.50366839 11.81171221
H 14.89715486  4.67810555 11.81178096
C 12.43958101  5.30589529 10.63164373
C 11.53675082  4.40310573 11.53677683
C 10.63162386  5.30592486 12.43958413
H  9.98029945  5.93610181 11.80842976
H  9.98028092  4.67479632 13.06977008
C 12.43956611  3.49799763 12.43961423
H 13.06974556  2.84665015 11.80848502
H 11.80842014  2.84666969 13.06979686
H 10.89747347  3.76381663 10.89750461
H 11.80844321  5.9360696   9.98030085
H 13.06976513  4.67474567  9.98031944
H 13.63688602  7.76401905  9.98017989
H 14.89770774  6.50317358  9.98021834
H 15.46482379  9.59243532  9.9801036 
H 16.72616187  8.33112239  9.98010949
H 17.63708921 10.50342576 10.89728058
H 18.55424018  8.33113798 11.8082816 
H 18.55422004  9.59246639 13.06959214
H 18.55417464  6.50313127 13.63684206
H 18.55418478  7.76399362 14.89763461
C 16.08394781  7.12268786 16.08400513
H 16.7227112   7.76349581 16.72275239
H 18.55416346  4.67465185 15.4648769 
H 18.55418122  5.93598323 16.72617968
C 16.09495962  3.49789794 16.09509429
H 16.72609391  2.84654916 15.46492183
H 15.46476095  2.84656945 16.72622402
H 17.63707375  3.76368676 17.63723257
H 16.72606437  5.93601767 18.55429444
H 15.46472578  4.67470777 18.55427617
H 13.63732194  4.67810167 16.722803  
H 14.89767833  2.84656457 13.63694121
H 13.63683818  2.84658409 14.89776151
H 11.81172359  4.67815253 14.89718644
H  9.98020504  7.76407711 13.63684776
H  9.98019657  6.5032429  14.89768635
C 10.63144854  8.96137637 16.09498797
H  9.98013309  9.59250489 15.46477485
H  9.98009993  8.3312045  16.72612469
H 11.81166629  6.50373656 16.72277081
C 14.25628917  8.95034617 16.08398557
H 14.89707801  9.58912841 16.72273321
H 16.72273147  9.58909799 14.89707048
H 13.63676066 11.420539   13.63673943
H 14.8975872  11.42056852 14.8975669 
H 11.80828246 11.42055243 15.46473163
H 13.06959687 11.42059055 16.72604307
H 10.89729173 10.5034942  17.63705981
H 13.06959545  9.59253562 18.55423204
H 11.80825933  8.33121643 18.55424661
H 14.89758485  7.76405843 18.5542507 
H 13.63675955  6.50321769 18.55423613
