103
C 14.2672      7.1336383  17.85210279
C 13.36503074  8.0357914  16.98095812
C 12.46106819  8.93977472 17.85636313
C 11.56926815  9.83156204 16.96514794
C 12.46106438 10.72274395 16.07332091
C 13.36505243  9.84732431 15.16936386
C 14.26722513 10.71843421 14.26720748
C 15.16938227  9.84729964 13.36503464
C 16.0590944   8.92546055 14.25427042
C 15.17222942  8.0386182  15.17225118
C 14.26725523  7.1336096  14.26728216
C 13.36221133  6.22858842 15.17228765
C 12.47532943  7.14658852 16.05913377
C 11.55347267  8.03577692 15.16940507
C 10.68238553  7.13359799 14.26726587
C 11.55350506  6.23144916 13.36509622
C 12.47536557  5.34176628 14.25433401
C 13.36508016  4.41989476 13.36513627
C 14.26723232  3.54875296 14.26731336
C 15.1693725   4.41987549 15.16945563
C 14.28019166  5.34175419 16.05916542
C 15.16936345  6.23146263 16.98100964
C 16.07332404  5.32751121 17.85644546
C 16.9651085   4.43571915 16.96523311
C 17.85635482  5.3274916  16.07343626
C 16.980943    6.23144099 15.16944521
C 17.85205876  7.13359655 14.26726891
C 16.98094066  8.03574831 13.36506563
C 17.85638162  8.93970744 12.4610846 
C 16.96518197  9.83148572 11.56927081
C 16.07334239 10.72269575 12.46105328
H 15.44590431 11.378164   11.83754327
H 16.69682169 11.37819475 13.08847107
C 16.07339142  8.93969045 10.67807824
C 15.16941874  8.03572637 11.55348708
C 14.26727152  7.13355009 10.68240205
C 13.36508506  6.23142462 11.55353392
C 12.47537726  7.12064275 12.47538365
C 13.36223297  8.03859845 13.36223296
C 12.47535412  8.92546981 14.28020593
H 11.8374611   9.56333404 13.64073047
C 14.28022094  8.92544504 12.47534688
H 13.64075908  9.56330534 11.8374357 
H 11.83748779  7.76010632 11.83747914
C 14.2542989   5.34174057 12.4754159 
C 15.17225622  6.22856282 13.36225883
C 16.05910561  5.34172636 14.28026931
H 16.69696461  4.70381956 13.64079909
C 16.05912152  7.14653967 12.47537081
H 16.69697971  6.50704263 11.83748432
H 14.8937514   4.70385015 11.83752315
C 12.46111425  5.32745812 10.67815983
C 11.56931452  4.43566549 11.56935429
C 10.67812261  5.32748202 12.46113281
H 10.02267012  5.95491642 11.8376043 
H 10.02263275  4.70398514 13.08855989
C 12.46112086  3.54448316 12.46117847
H 13.08854434  2.88899119 11.83768049
H 11.83760903  2.88900762 13.08860515
H 10.93341417  3.79975655 10.93345767
H 11.83760056  5.95489219 10.0226932 
H 13.08853802  4.70394324 10.02268418
H 13.64191141  7.75888476 10.02572257
H 14.89264086  6.50814247 10.02580307
H 15.44593655  9.56319007 10.02262182
H 16.69687877  8.3122415  10.02259901
H 17.6010989 10.4673776 10.9333728
H 18.51186613  8.31226974 11.83760004
H 18.51183376  9.56321814 13.08852529
H 18.50870298  6.50821792 13.64192701
H 18.50868842  7.75897629 14.89262357
C 16.05908736  7.12063551 16.05913888
H 16.69696651  7.76011364 16.69699712
H 18.5118266   4.70399127 15.44600273
H 18.51182245  5.95494844 16.69692062
C 16.07332377  3.54447288 16.07344139
H 16.69681413  2.88898159 15.44600878
H 15.44586557  2.88899878 16.69692589
H 17.60101739  3.79984196 17.60114973
H 16.69681767  5.95496976 18.51192011
H 15.44585649  4.70401382 18.51189088
H 13.64070126  4.70386507 16.69702272
H 14.89258916  2.89209673 13.64195298
H 13.64185502  2.89211395 14.89267126
H 11.83745709  4.70389425 14.89378921
H 10.02574693  7.75894047 13.64188498
H 10.02576468  6.50821055 14.89263589
C 10.67806906  8.93976625 16.07335591
H 10.02262843  9.56326929 15.44588716
H 10.02257513  8.3123362  16.69684469
H 11.83742377  6.50710853 16.69699124
C 14.25426253  8.92548426 16.05909496
H 14.89372766  9.56338563 16.69695018
H 16.69697037  9.56336277 14.89372904
H 13.64186182 11.3750766  13.6418374 
H 14.89258768 11.37508258 14.89256593
H 11.83755986 11.37821479 15.44588003
H 13.08849538 11.37824109 16.69678934
H 10.93337248 10.46748204 17.60105533
H 13.08852008  9.56328798 18.51182081
H 11.83755016  8.31234092 18.51181979
H 14.89255505  7.75900941 18.50874388
H 13.64181368  6.50826862 18.50871711
