152

C -0.26707638  2.20601356  0.50756095
C -0.227472    0.67429275  0.44846251
C  0.48229333  0.13587458 -0.80256343
C  0.52823991 -1.39749693 -0.87075907
C  1.23737268 -1.93638052 -2.12190878
C  1.2840574  -3.47005361 -2.18859177
C  1.99284288 -4.01014742 -3.43948934
C  2.04031736 -5.54389434 -3.50453589
C  2.74888516 -6.08579444 -4.7548004 
C  2.79681042 -7.61963388 -4.81767255
C  3.50527606 -8.16340994 -6.0671844 
C  3.55339726 -9.6973452  -6.12766877
C   4.26180321 -10.24304917  -7.37637113
C   4.30994793 -11.77707844  -7.4344909 
C   5.01830962 -12.32467088  -8.68238809
C   5.06636932 -13.85878704  -8.73831221
C   5.77471224 -14.40811536  -9.98545434
C   5.82264346 -15.94230613 -10.03945488
C   6.53098605 -16.49311904 -11.28593957
C   6.57881106 -18.02736882 -11.3383634 
C   7.2871944  -18.57933508 -12.58431319
C   7.33497825 -20.11362661 -12.6355711 
C   8.04345007 -20.66635546 -13.88113138
C   8.09130128 -22.20066871 -13.93167016
C   8.79991395 -22.75372949 -15.17700233
C   8.84796387 -24.28804513 -15.22729206
C   9.55677532 -24.84098977 -16.472563  
C   9.60515844 -26.37528736 -16.52308007
C  10.31422648 -26.9276728  -17.76845375
C  10.36306347 -28.46193212 -17.81966617
C  11.0724214  -29.01333827 -19.06531048
C  11.12179682 -30.54754098 -19.11766153
C  11.83147367 -31.0975924  -20.36372473
C  11.88141754 -32.63172176 -20.41762091
C  12.5914281  -33.18010715 -21.66422991
C  12.64190802 -34.71414944 -21.72002189
C  13.35222979 -35.26064335 -22.96728648
C  13.40314813 -36.79458893 -23.02524593
C  14.11374489 -37.33906678 -24.27323857
C  14.1649347  -38.87291058 -24.3335353 
C  14.87578079 -39.41536121 -25.58227051
C  14.92701638 -40.94910344 -25.64492343
C  15.63810401 -41.48960713 -26.89436121
C  15.68906655 -43.0232531  -26.95915972
C  16.40046149 -43.56190311 -28.20919845
C  16.45075314 -45.09547371 -28.27561061
C  17.1625551  -45.63288676 -29.52587688
C  17.21216657 -47.16615564 -29.59379144
C  17.92464525 -47.70308889 -30.84391313
C  17.96791153 -49.23472104 -30.90274064
H 0.75252387 2.63186701 0.51125311
H -0.79726421  2.62575196 -0.36631601
H -0.782619    2.56395351  1.41551244
H 0.27861522 0.28096373 1.35187207
H -1.2600588   0.27474314  0.48150223
H -0.02402127  0.52889919 -1.70736952
H  1.51577269  0.53617635 -0.83690384
H  1.03465683 -1.78914755  0.03446902
H -0.50553637 -1.7966564  -0.83527553
H  0.73044211 -1.54550792 -3.02711334
H  2.27083817 -1.53660818 -2.15781432
H  1.79112569 -3.86054008 -1.28329433
H  0.25057224 -3.86972596 -2.15220189
H  1.48530789 -3.6206362  -4.34492534
H  3.02611251 -3.60999134 -3.47635782
H  2.54778996 -5.9329726  -2.59886616
H  1.00700838 -5.94392153 -3.46726768
H  2.24100809 -5.69776948 -5.66067897
H  3.78203472 -5.68541731 -4.79254263
H  3.30452426 -8.00721171 -3.91149535
H  1.76360823 -8.01985983 -4.77960327
H  2.99722282 -7.77687612 -6.97360093
H  4.53836566 -7.7629539  -6.10569437
H   4.06123394 -10.08343191  -5.22092444
H   2.52024349 -10.09762657  -6.08886979
H  3.75368886 -9.85793589 -8.28335845
H  5.29488191 -9.8426317  -7.41556248
H   4.8178261  -12.16176651  -6.52717605
H   3.27680051 -12.17731238  -7.39503878
H   4.51021384 -11.94084883  -9.5899334 
H   6.05141109 -11.9243709   -8.72217416
H   5.57422643 -14.24222546  -7.83045762
H   4.03320128 -14.25891233  -8.69830855
H   5.26668695 -14.02541417 -10.89351326
H   6.80785262 -14.00796377 -10.02573022
H   6.33045691 -16.32467759  -9.13112662
H   4.7894452  -16.34230694  -9.99900163
H   6.02304426 -16.11134779 -12.19443777
H   7.5641635  -16.09310125 -11.3266054 
H   7.08657128 -18.40887874 -10.42964451
H   5.54559034 -18.42727646 -11.29757876
H   6.77934296 -18.19827441 -13.49316175
H   8.3203951  -18.17940248 -12.62524678
H   7.84268944 -20.49450087 -11.72656003
H   6.30175262 -20.51349881 -12.59458379
H   7.53567478 -20.2857787  -14.7902267 
H   9.07664787 -20.26642772 -13.92220806
H   8.59898761 -22.58113831 -13.02247784
H   7.05810015 -22.60059394 -13.89060811
H   8.29218812 -22.37340463 -16.0862326 
H   9.83307565 -22.35370816 -15.21809788
H   9.35565119 -24.66834749 -14.31803179
H   7.81482181 -24.68812631 -15.1862848 
H   9.04907227 -24.4606779  -17.38181302
H  10.58986641 -24.44077105 -16.51354483
H  10.11287036 -26.75565923 -15.61386419
H   8.57210943 -26.77562512 -16.48226017
H   9.80652074 -26.54713714 -18.67761012
H  11.34721414 -26.5271609  -17.80918948
H  10.8708326  -28.842611   -16.91061194
H   9.33013826 -28.8626177  -17.77914997
H  10.56468901 -28.6323406  -19.97425955
H  12.10528193 -28.61245993 -19.10568329
H  11.62963557 -30.92875912 -18.20887362
H  10.08901481 -30.94863613 -19.07756614
H  11.32371015 -30.71589833 -21.2723656 
H  12.86419712 -30.69631066 -20.4036139 
H  12.38932049 -33.01370655 -19.5091919 
H  10.84878365 -33.03324965 -20.37805943
H  12.08364991 -32.79749268 -22.57247651
H  13.62402059 -32.77842842 -21.70352159
H  13.14985954 -35.09711473 -20.81203464
H  11.60941038 -35.11608755 -21.68108125
H  12.84445661 -34.87690875 -23.87506425
H  14.38471323 -34.85861839 -23.00590083
H  13.91111426 -37.17871936 -22.11775985
H  12.37075822 -37.19686956 -22.9869926 
H  13.60602079 -36.9540446  -25.180499  
H  15.14615948 -36.936794   -24.31110699
H  14.67283742 -39.25835373 -23.42657068
H  13.13260394 -39.27541461 -24.29603997
H  14.36818404 -39.0289454  -26.48900927
H  15.90818215 -39.01298021 -25.61933395
H  15.43475013 -41.33594514 -24.73845875
H  13.89468371 -41.35168027 -25.60824433
H  15.13074589 -41.1017666  -27.80062589
H  16.67056524 -41.08730048 -26.93057292
H  16.19647196 -43.41151137 -26.05311287
H  14.65665592 -43.42571843 -26.92338213
H  15.89350227 -43.17270611 -29.11511199
H  17.43306649 -43.15986569 -28.24450162
H  16.95756122 -45.48504592 -27.36977707
H  15.41817366 -45.49762629 -28.24081803
H  16.65625437 -45.24255086 -30.43173736
H  18.19543656 -45.23132021 -29.5602459 
H  17.71835221 -47.55786157 -28.68834177
H  16.17958824 -47.5688715  -29.56059185
H  17.41868989 -47.3110774  -31.74796927
H  18.95633047 -47.30112448 -30.87581112
H  18.49806796 -49.65308856 -30.02818786
H  16.94931787 -49.66296639 -30.90755523
H  18.48534656 -49.591581   -31.81004063
