103

C      14.26700      7.13400     17.83400
C      13.37500      8.02500     16.94200
C      12.48400      8.91700     17.83400
C      11.59200      9.80900     16.94200
C      12.48400     10.70000     16.05100
C      13.37500      9.80900     15.15900
C      14.26700     10.70000     14.26700
C      15.15900      9.80900     13.37500
C      16.05100      8.91700     14.26700
C      15.15900      8.02500     15.15900
C      14.26700      7.13400     14.26700
C      13.37500      6.24200     15.15900
C      12.48400      7.13400     16.05100
C      11.59200      8.02500     15.15900
C      10.70000      7.13400     14.26700
C      11.59200      6.24200     13.37500
C      12.48400      5.35000     14.26700
C      13.37500      4.45800     13.37500
C      14.26700      3.56700     14.26700
C      15.15900      4.45800     15.15900
C      14.26700      5.35000     16.05100
C      15.15900      6.24200     16.94200
C      16.05100      5.35000     17.83400
C      16.94200      4.45800     16.94200
C      17.83400      5.35000     16.05100
C      16.94200      6.24200     15.15900
C      17.83400      7.13400     14.26700
C      16.94200      8.02500     13.37500
C      17.83400      8.91700     12.48400
C      16.94200      9.80900     11.59200
C      16.05100     10.70000     12.48400
H      15.42200     11.32900     11.85400
H      16.68100     11.32900     13.11400
C      16.05100      8.91700     10.70000
C      15.15900      8.02500     11.59200
C      14.26700      7.13400     10.70000
C      13.37500      6.24200     11.59200
C      12.48400      7.13400     12.48400
C      13.37500      8.02500     13.37500
C      12.48400      8.91700     14.26700
H      11.85500      9.54600     13.63700
C      14.26700      8.91700     12.48400
H      13.63700      9.54600     11.85500
H      11.85500      7.76300     11.85500
C      14.26700      5.35000     12.48400
C      15.15900      6.24200     13.37500
C      16.05100      5.35000     14.26700
H      16.68100      4.72100     13.63800
C      16.05100      7.13400     12.48400
H      16.68100      6.50500     11.85500
H      14.89600      4.72000     11.85500
C      12.48400      5.35000     10.70000
C      11.59200      4.45800     11.59200
C      10.70000      5.35000     12.48400
H      10.07000      5.97900     11.85500
H      10.07100      4.72100     13.11400
C      12.48400      3.56700     12.48400
H      13.11400      2.93800     11.85500
H      11.85500      2.93800     13.11400
H      10.96300      3.82800     10.96300
H      11.85500      5.97900     10.07000
H      13.11400      4.72100     10.07100
H      13.63800      7.76400     10.07100
H      14.89600      6.50500     10.07000
H      15.42200      9.54600     10.07000
H      16.68100      8.28800     10.07100
H      17.57100     10.43900     10.96300
H      18.46300      8.28700     11.85500
H      18.46300      9.54600     13.11400
H      18.46300      6.50500     13.63700
H      18.46300      7.76400     14.89600
C      16.05100      7.13400     16.05100
H      16.68000      7.76400     16.68100
H      18.46300      4.72000     15.42200
H      18.46300      5.97900     16.68100
C      16.05100      3.56700     16.05100
H      16.68100      2.93800     15.42200
H      15.42200      2.93800     16.68100
H      17.57100      3.82800     17.57100
H      16.68000      5.97900     18.46300
H      15.42200      4.72100     18.46400
H      13.63800      4.72100     16.68100
H      14.89600      2.93800     13.63700
H      13.63700      2.93800     14.89600
H      11.85500      4.72000     14.89600
H      10.07000      7.76400     13.63800
H      10.07000      6.50500     14.89600
C      10.70000      8.91700     16.05100
H      10.07000      9.54600     15.42200
H      10.07100      8.28800     16.68100
H      11.85500      6.50500     16.68100
C      14.26700      8.91700     16.05100
H      14.89600      9.54600     16.68100
H      16.68000      9.54600     14.89600
H      13.63800     11.32900     13.63700
H      14.89700     11.32900     14.89600
H      11.85500     11.32900     15.42100
H      13.11400     11.32900     16.68100
H      10.96300     10.43800     17.57100
H      13.11300      9.54600     18.46300
H      11.85500      8.28800     18.46400
H      14.89600      7.76400     18.46300
H      13.63800      6.50500     18.46400
