593

C      19.61700      1.78300     21.40100
C       7.13400     14.26700     21.40100
C      10.70000     10.70000     21.40100
C       8.91700     12.48400     21.40100
C      14.26700      7.13400     21.40100
C      12.48400      8.91700     21.40100
C      17.83400      3.56700     21.40100
C      16.05100      5.35000     21.40100
C      21.40100      1.78300     19.61700
C      17.83400     -0.00000     17.83400
C      18.72600      0.89200     18.72600
C      17.83400      1.78300     19.61700
C      18.72600      2.67500     20.50900
C      19.61700     -0.00000     19.61700
C      20.50900      0.89200     20.50900
C      19.61700      1.78300     17.83400
C      20.50900      2.67500     18.72600
C      16.05100      1.78300     17.83400
C      16.94200      2.67500     18.72600
C      10.70000     14.26700     17.83400
C       7.13400     14.26700     17.83400
C       8.02500     15.15900     18.72600
C       7.13400     16.05100     19.61700
C       8.91700     14.26700     19.61700
C       8.91700     16.05100     17.83400
C       5.35000     14.26700     19.61700
C       6.24200     15.15900     20.50900
C      14.26700     10.70000     17.83400
C      10.70000     10.70000     17.83400
C      11.59200     11.59200     18.72600
C      10.70000     12.48400     19.61700
C      12.48400     10.70000     19.61700
C      12.48400     12.48400     17.83400
C       7.13400     10.70000     17.83400
C       8.02500     11.59200     18.72600
C       7.13400     12.48400     19.61700
C       8.02500     13.37500     20.50900
C       8.91700     10.70000     19.61700
C       9.80900     11.59200     20.50900
C       8.91700     12.48400     17.83400
C       9.80900     13.37500     18.72600
C       5.35000     12.48400     17.83400
C       6.24200     13.37500     18.72600
C      17.83400      7.13400     17.83400
C      14.26700      7.13400     17.83400
C      15.15900      8.02500     18.72600
C      14.26700      8.91700     19.61700
C      16.05100      7.13400     19.61700
C      16.05100      8.91700     17.83400
C      10.70000      7.13400     17.83400
C      11.59200      8.02500     18.72600
C      10.70000      8.91700     19.61700
C      11.59200      9.80900     20.50900
C      12.48400      7.13400     19.61700
C      13.37500      8.02500     20.50900
C      12.48400      8.91700     17.83400
C      13.37500      9.80900     18.72600
C       8.91700      8.91700     17.83400
C       9.80900      9.80900     18.72600
C      21.40100      3.56700     17.83400
C      17.83400      3.56700     17.83400
C      18.72600      4.45800     18.72600
C      17.83400      5.35000     19.61700
C      19.61700      3.56700     19.61700
C      19.61700      5.35000     17.83400
C      14.26700      3.56700     17.83400
C      15.15900      4.45800     18.72600
C      14.26700      5.35000     19.61700
C      15.15900      6.24200     20.50900
C      16.05100      3.56700     19.61700
C      16.94200      4.45800     20.50900
C      16.05100      5.35000     17.83400
C      16.94200      6.24200     18.72600
C      12.48400      5.35000     17.83400
C      13.37500      6.24200     18.72600
C      17.83400      1.78300     16.05100
C      18.72600      2.67500     16.94200
C      14.26700      0.00000     14.26700
C      15.15900      0.89200     15.15900
C      14.26700      1.78300     16.05100
C      15.15900      2.67500     16.94200
C      16.05100      0.00000     16.05100
C      16.94200      0.89200     16.94200
C      16.05100      1.78300     14.26700
C      16.94200      2.67500     15.15900
C      12.48400      1.78300     14.26700
C      13.37500      2.67500     15.15900
C      14.26700     14.26700     14.26700
C      10.70000     14.26700     14.26700
C      11.59200     15.15900     15.15900
C      10.70000     16.05100     16.05100
C      12.48400     14.26700     16.05100
C      12.48400     16.05100     14.26700
C       8.91700     14.26700     16.05100
C       9.80900     15.15900     16.94200
C      17.83400     10.70000     14.26700
C      14.26700     10.70000     14.26700
C      15.15900     11.59200     15.15900
C      14.26700     12.48400     16.05100
C      16.05100     10.70000     16.05100
C      16.05100     12.48400     14.26700
C      10.70000     10.70000     14.26700
C      11.59200     11.59200     15.15900
C      10.70000     12.48400     16.05100
C      11.59200     13.37500     16.94200
C      12.48400     10.70000     16.05100
C      13.37500     11.59200     16.94200
C      12.48400     12.48400     14.26700
C      13.37500     13.37500     15.15900
C       7.13400     10.70000     14.26700
C       8.02500     11.59200     15.15900
C       7.13400     12.48400     16.05100
C       8.02500     13.37500     16.94200
C       8.91700     10.70000     16.05100
C       9.80900     11.59200     16.94200
C       8.91700     12.48400     14.26700
C       9.80900     13.37500     15.15900
C       5.35000     10.70000     16.05100
C       6.24200     11.59200     16.94200
C      21.40100      7.13400     14.26700
C      17.83400      7.13400     14.26700
C      18.72600      8.02500     15.15900
C      17.83400      8.91700     16.05100
C      19.61700      7.13400     16.05100
C      19.61700      8.91700     14.26700
C      14.26700      7.13400     14.26700
C      15.15900      8.02500     15.15900
C      14.26700      8.91700     16.05100
C      15.15900      9.80900     16.94200
C      16.05100      7.13400     16.05100
C      16.94200      8.02500     16.94200
C      16.05100      8.91700     14.26700
C      16.94200      9.80900     15.15900
C      10.70000      7.13400     14.26700
C      11.59200      8.02500     15.15900
C      10.70000      8.91700     16.05100
C      11.59200      9.80900     16.94200
C      12.48400      7.13400     16.05100
C      13.37500      8.02500     16.94200
C      12.48400      8.91700     14.26700
C      13.37500      9.80900     15.15900
C       7.13400      7.13400     14.26700
C       8.02500      8.02500     15.15900
C       7.13400      8.91700     16.05100
C       8.02500      9.80900     16.94200
C       8.91700      7.13400     16.05100
C       9.80900      8.02500     16.94200
C       8.91700      8.91700     14.26700
C       9.80900      9.80900     15.15900
C       5.35000      8.91700     14.26700
C       6.24200      9.80900     15.15900
C      21.40100      5.35000     16.05100
C      17.83400      3.56700     14.26700
C      18.72600      4.45800     15.15900
C      17.83400      5.35000     16.05100
C      18.72600      6.24200     16.94200
C      19.61700      3.56700     16.05100
C      20.50900      4.45800     16.94200
C      19.61700      5.35000     14.26700
C      20.50900      6.24200     15.15900
C      14.26700      3.56700     14.26700
C      15.15900      4.45800     15.15900
C      14.26700      5.35000     16.05100
C      15.15900      6.24200     16.94200
C      16.05100      3.56700     16.05100
C      16.94200      4.45800     16.94200
C      16.05100      5.35000     14.26700
C      16.94200      6.24200     15.15900
C      10.70000      3.56700     14.26700
C      11.59200      4.45800     15.15900
C      10.70000      5.35000     16.05100
C      11.59200      6.24200     16.94200
C      12.48400      3.56700     16.05100
C      13.37500      4.45800     16.94200
C      12.48400      5.35000     14.26700
C      13.37500      6.24200     15.15900
C       8.91700      5.35000     14.26700
C       9.80900      6.24200     15.15900
C      14.26700      1.78300     12.48400
C      15.15900      2.67500     13.37500
C      10.70000     -0.00000     10.70000
C      11.59200      0.89200     11.59200
C      10.70000      1.78300     12.48400
C      11.59200      2.67500     13.37500
C      12.48400      0.00000     12.48400
C      13.37500      0.89200     13.37500
C      12.48400      1.78300     10.70000
C      13.37500      2.67500     11.59200
C       8.91700      1.78300     10.70000
C       9.80900      2.67500     11.59200
C      17.83400     14.26700     10.70000
C      14.26700     14.26700     10.70000
C      15.15900     15.15900     11.59200
C      14.26700     16.05100     12.48400
C      16.05100     14.26700     12.48400
C      16.05100     16.05100     10.70000
C      12.48400     14.26700     12.48400
C      13.37500     15.15900     13.37500
C      21.40100     10.70000     10.70000
C      17.83400     10.70000     10.70000
C      18.72600     11.59200     11.59200
C      17.83400     12.48400     12.48400
C      19.61700     10.70000     12.48400
C      19.61700     12.48400     10.70000
C      14.26700     10.70000     10.70000
C      15.15900     11.59200     11.59200
C      14.26700     12.48400     12.48400
C      15.15900     13.37500     13.37500
C      16.05100     10.70000     12.48400
C      16.94200     11.59200     13.37500
C      16.05100     12.48400     10.70000
C      16.94200     13.37500     11.59200
C      10.70000     10.70000     10.70000
C      11.59200     11.59200     11.59200
C      10.70000     12.48400     12.48400
C      11.59200     13.37500     13.37500
C      12.48400     10.70000     12.48400
C      13.37500     11.59200     13.37500
C      12.48400     12.48400     10.70000
C      13.37500     13.37500     11.59200
C       8.91700     10.70000     12.48400
C       9.80900     11.59200     13.37500
C      21.40100      8.91700     12.48400
C      17.83400      7.13400     10.70000
C      18.72600      8.02500     11.59200
C      17.83400      8.91700     12.48400
C      18.72600      9.80900     13.37500
C      19.61700      7.13400     12.48400
C      20.50900      8.02500     13.37500
C      19.61700      8.91700     10.70000
C      20.50900      9.80900     11.59200
C      14.26700      7.13400     10.70000
C      15.15900      8.02500     11.59200
C      14.26700      8.91700     12.48400
C      15.15900      9.80900     13.37500
C      16.05100      7.13400     12.48400
C      16.94200      8.02500     13.37500
C      16.05100      8.91700     10.70000
C      16.94200      9.80900     11.59200
C      10.70000      7.13400     10.70000
C      11.59200      8.02500     11.59200
C      10.70000      8.91700     12.48400
C      11.59200      9.80900     13.37500
C      12.48400      7.13400     12.48400
C      13.37500      8.02500     13.37500
C      12.48400      8.91700     10.70000
C      13.37500      9.80900     11.59200
C       7.13400      7.13400     10.70000
C       8.02500      8.02500     11.59200
C       7.13400      8.91700     12.48400
C       8.02500      9.80900     13.37500
C       8.91700      7.13400     12.48400
C       9.80900      8.02500     13.37500
C       8.91700      8.91700     10.70000
C       9.80900      9.80900     11.59200
C       5.35000      7.13400     12.48400
C       6.24200      8.02500     13.37500
C      17.83400      5.35000     12.48400
C      18.72600      6.24200     13.37500
C      14.26700      3.56700     10.70000
C      15.15900      4.45800     11.59200
C      14.26700      5.35000     12.48400
C      15.15900      6.24200     13.37500
C      16.05100      3.56700     12.48400
C      16.94200      4.45800     13.37500
C      16.05100      5.35000     10.70000
C      16.94200      6.24200     11.59200
C      10.70000      3.56700     10.70000
C      11.59200      4.45800     11.59200
C      10.70000      5.35000     12.48400
C      11.59200      6.24200     13.37500
C      12.48400      3.56700     12.48400
C      13.37500      4.45800     13.37500
C      12.48400      5.35000     10.70000
C      13.37500      6.24200     11.59200
C       7.13400      3.56700     10.70000
C       8.02500      4.45800     11.59200
C       7.13400      5.35000     12.48400
C       8.02500      6.24200     13.37500
C       8.91700      3.56700     12.48400
C       9.80900      4.45800     13.37500
C       8.91700      5.35000     10.70000
C       9.80900      6.24200     11.59200
C       5.35000      5.35000     10.70000
C       6.24200      6.24200     11.59200
C      10.70000      1.78300      8.91700
C      11.59200      2.67500      9.80900
C       7.13400      0.00000      7.13400
C       8.02500      0.89200      8.02500
C       7.13400      1.78300      8.91700
C       8.02500      2.67500      9.80900
C       8.91700     -0.00000      8.91700
C       9.80900      0.89200      9.80900
C       8.91700      1.78300      7.13400
C       9.80900      2.67500      8.02500
C       5.35000      1.78300      7.13400
C       6.24200      2.67500      8.02500
C      21.40100     14.26700      7.13400
C      17.83400     14.26700      7.13400
C      18.72600     15.15900      8.02500
C      17.83400     16.05100      8.91700
C      19.61700     14.26700      8.91700
C      19.61700     16.05100      7.13400
C      16.05100     14.26700      8.91700
C      16.94200     15.15900      9.80900
C      21.40100     12.48400      8.91700
C      17.83400     10.70000      7.13400
C      18.72600     11.59200      8.02500
C      17.83400     12.48400      8.91700
C      18.72600     13.37500      9.80900
C      19.61700     10.70000      8.91700
C      20.50900     11.59200      9.80900
C      19.61700     12.48400      7.13400
C      20.50900     13.37500      8.02500
C      14.26700     10.70000      7.13400
C      15.15900     11.59200      8.02500
C      14.26700     12.48400      8.91700
C      15.15900     13.37500      9.80900
C      16.05100     10.70000      8.91700
C      16.94200     11.59200      9.80900
C      16.05100     12.48400      7.13400
C      16.94200     13.37500      8.02500
C      12.48400     10.70000      8.91700
C      13.37500     11.59200      9.80900
C      17.83400      8.91700      8.91700
C      18.72600      9.80900      9.80900
C      14.26700      7.13400      7.13400
C      15.15900      8.02500      8.02500
C      14.26700      8.91700      8.91700
C      15.15900      9.80900      9.80900
C      16.05100      7.13400      8.91700
C      16.94200      8.02500      9.80900
C      16.05100      8.91700      7.13400
C      16.94200      9.80900      8.02500
C      10.70000      7.13400      7.13400
C      11.59200      8.02500      8.02500
C      10.70000      8.91700      8.91700
C      11.59200      9.80900      9.80900
C      12.48400      7.13400      8.91700
C      13.37500      8.02500      9.80900
C      12.48400      8.91700      7.13400
C      13.37500      9.80900      8.02500
C       8.91700      7.13400      8.91700
C       9.80900      8.02500      9.80900
C      14.26700      5.35000      8.91700
C      15.15900      6.24200      9.80900
C      10.70000      3.56700      7.13400
C      11.59200      4.45800      8.02500
C      10.70000      5.35000      8.91700
C      11.59200      6.24200      9.80900
C      12.48400      3.56700      8.91700
C      13.37500      4.45800      9.80900
C      12.48400      5.35000      7.13400
C      13.37500      6.24200      8.02500
C       7.13400      3.56700      7.13400
C       8.02500      4.45800      8.02500
C       7.13400      5.35000      8.91700
C       8.02500      6.24200      9.80900
C       8.91700      3.56700      8.91700
C       9.80900      4.45800      9.80900
C       8.91700      5.35000      7.13400
C       9.80900      6.24200      8.02500
C       5.35000      3.56700      8.91700
C       6.24200      4.45800      9.80900
C       7.13400      1.78300      5.35000
C       8.02500      2.67500      6.24200
C       6.24200      0.89200      6.24200
C      19.61700     14.26700      5.35000
C      20.50900     15.15900      6.24200
C      17.83400     12.48400      5.35000
C      18.72600     13.37500      6.24200
C      16.05100     10.70000      5.35000
C      16.94200     11.59200      6.24200
C      14.26700      8.91700      5.35000
C      15.15900      9.80900      6.24200
C      12.48400      7.13400      5.35000
C      13.37500      8.02500      6.24200
C      10.70000      5.35000      5.35000
C      11.59200      6.24200      6.24200
C       8.91700      3.56700      5.35000
C       9.80900      4.45800      6.24200
H      18.98800      1.15400     22.03000
H       6.50400     13.63800     22.03000
H      10.07100     10.07100     22.03000
H       8.28800     11.85400     22.03000
H      13.63800      6.50400     22.03000
H      11.85400      8.28800     22.03000
H      17.20500      2.93700     22.03000
H      15.42100      4.72100     22.03000
H      22.03000      1.15400     18.98800
H      18.46300     -0.62900     17.20500
H      17.20500     -0.62900     18.46300
H      17.20500      1.15400     20.24700
H      18.98800     -0.62900     20.24700
H      20.24700     -0.62900     18.98800
H      20.24700      1.15400     17.20500
H      15.42100      1.15400     18.46300
H       4.72100     13.63800     20.24700
H       6.50400     10.07100     18.46300
H       6.50400     11.85400     20.24700
H       8.28800     10.07100     20.24700
H       4.72100     11.85400     18.46300
H      10.07100      6.50400     18.46300
H      10.07100      8.28800     20.24700
H      11.85400      6.50400     20.24700
H       8.28800      8.28800     18.46300
H      22.03000      2.93700     17.20500
H      13.63800      2.93700     18.46300
H      13.63800      4.72100     20.24700
H      15.42100      2.93700     20.24700
H      11.85400      4.72100     18.46300
H      18.46300      1.15400     15.42100
H      14.89600     -0.62900     13.63800
H      13.63800     -0.62900     14.89600
H      13.63800      1.15400     16.68000
H      15.42100     -0.62900     16.68000
H      16.68000     -0.62900     15.42100
H      16.68000      1.15400     13.63800
H      11.85400      1.15400     14.89600
H       4.72100     10.07100     16.68000
H      22.03000      6.50400     13.63800
H       6.50400      6.50400     14.89600
H       6.50400      8.28800     16.68000
H       8.28800      6.50400     16.68000
H       4.72100      8.28800     14.89600
H      22.03000      4.72100     15.42100
H      18.46300      2.93700     13.63800
H      20.24700      2.93700     15.42100
H      20.24700      4.72100     13.63800
H      10.07100      2.93700     14.89600
H      10.07100      4.72100     16.68000
H      11.85400      2.93700     16.68000
H       8.28800      4.72100     14.89600
H      14.89600      1.15400     11.85400
H      11.33000     -0.62900     10.07100
H      10.07100     -0.62900     11.33000
H      10.07100      1.15400     13.11300
H      11.85400     -0.62900     13.11300
H      13.11300     -0.62900     11.85400
H      13.11300      1.15400     10.07100
H       8.28800      1.15400     11.33000
H      22.03000     10.07100     10.07100
H      22.03000      8.28800     11.85400
H      18.46300      6.50400     10.07100
H      20.24700      6.50400     11.85400
H      20.24700      8.28800     10.07100
H       4.72100      6.50400     13.11300
H      18.46300      4.72100     11.85400
H      14.89600      2.93700     10.07100
H      16.68000      2.93700     11.85400
H      16.68000      4.72100     10.07100
H       6.50400      2.93700     11.33000
H       6.50400      4.72100     13.11300
H       8.28800      2.93700     13.11300
H       4.72100      4.72100     11.33000
H      11.33000      1.15400      8.28800
H       7.76300     -0.62900      6.50400
H       6.50400     -0.62900      7.76300
H       6.50400      1.15400      9.54600
H       8.28800     -0.62900      9.54600
H       9.54600     -0.62900      8.28800
H       9.54600      1.15400      6.50400
H       4.72100      1.15400      7.76300
H      22.03000     13.63800      6.50400
H      22.03000     11.85400      8.28800
H      18.46300     10.07100      6.50400
H      20.24700     10.07100      8.28800
H      20.24700     11.85400      6.50400
H      18.46300      8.28800      8.28800
H      14.89600      6.50400      6.50400
H      16.68000      6.50400      8.28800
H      16.68000      8.28800      6.50400
H      14.89600      4.72100      8.28800
H      11.33000      2.93700      6.50400
H      13.11300      2.93700      8.28800
H      13.11300      4.72100      6.50400
H       4.72100      2.93700      9.54600
H       7.76300      1.15400      4.72100
H      20.24700     13.63800      4.72100
H      18.46300     11.85400      4.72100
H      16.68000     10.07100      4.72100
H      14.89600      8.28800      4.72100
H      13.11300      6.50400      4.72100
H      11.33000      4.72100      4.72100
H       9.54600      2.93700      4.72100
H       6.50500     14.89600     17.20400
H       6.50500     16.68100     18.98700
H       8.28800     16.68100     17.20500
H       4.72100     14.89600     18.98700
H       4.72100     13.11400     17.20500
H      10.07000     14.89600     13.63800
H      10.07100     16.68000     15.42200
H      11.85500     16.68000     13.63800
H       8.28700     14.89600     15.42200
H       6.50500     11.32900     13.63700
H       6.50500     13.11400     15.42200
H       8.28800     13.11400     13.63800
H       4.72000     11.32900     15.42200
H       4.72100      9.54600     13.63800
H      13.63800     14.89600     10.07100
H      13.63800     16.68000     11.85500
H      15.42200     16.68000     10.07100
H      11.85500     14.89600     11.85400
H      10.07100     11.32900     10.07100
H      10.07100     13.11300     11.85500
H      11.85500     13.11300     10.07100
H       8.28800     11.32900     11.85400
H       6.50500      7.76400     10.07100
H       6.50400      9.54600     11.85500
H       8.28800      9.54600     10.07100
H       4.72100      7.76400     11.85500
H       4.72100      5.97900     10.07000
H       4.72000      2.41200      6.50500
H      17.20400     14.89600      6.50500
H      17.20500     16.68100      8.28800
H      18.98700     16.68100      6.50500
H      15.42200     14.89600      8.28700
H      13.63800     11.32900      6.50400
H      13.63800     13.11400      8.28800
H      15.42200     13.11400      6.50500
H      11.85500     11.32900      8.28700
H      10.07000      7.76400      6.50500
H      10.07100      9.54600      8.28800
H      11.85500      9.54600      6.50400
H       8.28800      7.76400      8.28800
H       6.50500      4.19700      6.50500
H       6.50500      5.98000      8.28800
H       8.28800      5.98000      6.50500
H       4.72100      4.19700      8.28800
H       6.50500      2.41200      4.72000
H       5.61300      0.26300      5.61200
H      18.98700     14.89600      4.72100
H      17.20500     13.11400      4.72100
H      15.42200     11.32900      4.72000
H      13.63800      9.54600      4.72100
H      11.85500      7.76400      4.72100
H      10.07000      5.97900      4.72100
H       8.28800      4.19700      4.72100
H      20.24600      2.41200     22.03100
H       7.76400     14.89600     22.03000
H      11.32900     11.32900     22.03100
H       9.54600     13.11400     22.03000
H      14.89600      7.76400     22.03000
H      13.11400      9.54600     22.03000
H      18.46300      4.19700     22.03000
H      16.68100      5.97900     22.03000
H      22.03100      2.41200     20.24600
H      21.13900      0.26300     21.13800
H      11.32900     14.89700     18.46300
H       7.76400     16.68000     20.24600
H       9.54700     14.89600     20.24600
H       9.54600     16.68000     18.46300
H       5.61300     15.78800     21.13800
H      14.89700     11.32900     18.46300
H      11.32900     13.11400     20.24600
H      13.11400     11.32900     20.24600
H      13.11300     13.11400     18.46300
H      18.46300      7.76400     18.46300
H      14.89600      9.54700     20.24600
H      16.68000      7.76400     20.24600
H      16.68000      9.54600     18.46300
H      22.03000      4.19700     18.46300
H      18.46300      5.98000     20.24600
H      20.24600      4.19700     20.24600
H      20.24600      5.98000     18.46300
H      14.89600     14.89600     14.89600
H      11.32900     16.68000     16.68000
H      13.11300     14.89600     16.68100
H      13.11400     16.68000     14.89600
H      18.46400     11.32900     14.89600
H      14.89600     13.11300     16.68100
H      16.68000     11.32900     16.68000
H      16.68000     13.11400     14.89600
H      22.03000      7.76400     14.89600
H      18.46300      9.54600     16.68100
H      20.24600      7.76400     16.68100
H      20.24600      9.54700     14.89600
H      22.03000      5.97900     16.68100
H      18.46400     14.89600     11.32900
H      14.89600     16.68000     13.11400
H      16.68000     14.89600     13.11400
H      16.68000     16.68000     11.32900
H      22.03100     11.32900     11.32900
H      18.46300     13.11300     13.11400
H      20.24600     11.32900     13.11400
H      20.24600     13.11400     11.32900
H      22.03000      9.54600     13.11400
H      22.03000     14.89600      7.76400
H      18.46300     16.68000      9.54600
H      20.24600     14.89600      9.54700
H      20.24600     16.68000      7.76400
H      22.03000     13.11400      9.54600
H      21.13800     15.78800      5.61300
