163
C 16.08663965  1.74582311 17.8700989 
C 16.97962112  2.63774994 18.76309412
C 10.66433862 10.73796412 17.87002217
C 14.26580004  7.13218795 17.85398012
C 10.67881862  7.1577317  17.85551953
C 11.56915827  8.0481837  18.77897977
C 10.66431631  8.95302939 19.6549462 
C 12.47293311  7.14438941 19.64929491
C 12.45961823  8.93852631 17.85552883
C  8.87940787  8.95302793 17.86999728
C  9.77133521  9.84601169 18.76298769
C 17.87155079  3.53074102 17.87011492
C 14.291337    3.54522221 17.85558007
C 15.18177837  4.43555683 18.77904344
C 14.27797402  5.33934398 19.6493257 
C 16.08661713  3.5307218  19.6550381 
C 16.0721205   5.32601441 17.85557882
C 12.48514035  5.35154332 17.85397986
C 13.37546674  6.24185974 18.77621884
C 14.27801746  1.75151007 16.06141021
C 15.18179638  2.62176604 16.96523178
C 12.47296147  1.75151003 14.25632684
C 13.37548999  2.62455837 15.15886241
C 14.27800849 10.7323146  14.25636904
C 12.47296438 10.73230101 16.06140102
C 17.86588456  7.14441651 14.25639059
C 14.27791988  7.14430302 14.25645948
C 15.18475885  8.05116424 15.16201949
C 14.2658103   8.93696587 16.04920461
C 16.07056269  7.13219904 16.04922426
C 16.07213821  8.93855736 14.24303916
C 10.68040607  7.13219909 14.268526  
C 11.5662068   8.05115809 15.15570607
C 10.67883711  8.93853758 16.0747197 
C 11.5691758   9.86198815 16.96518137
C 12.47306581  7.14429255 16.06129736
C 13.37862312  8.05115083 16.96816171
C 12.48516592  8.93698047 14.26854559
C 13.37548956  9.85921194 15.15887304
C  8.88508407  7.14438828 16.06136054
C  9.75537081  8.04817713 16.96515744
C 17.86587271  5.3393617  16.06144452
C 14.26583664  3.54679522 14.26854794
C 15.18477602  4.43258741 15.15574055
C 14.27791278  5.33945438 16.06131003
C 15.18474853  6.24499942 16.96818423
C 16.07215636  3.54522239 16.07477868
C 16.99559552  4.43557313 16.96524709
C 16.07058899  5.35154905 14.26856299
C 16.99281192  6.24187779 15.15890057
C 10.67881406  3.5452232  14.24298751
C 11.56619234  4.4325819  15.16198612
C 10.68039361  5.35154553 16.04918261
C 11.56619254  6.23871008 16.9681495 
C 12.48514751  3.54678904 16.04920315
C 13.37233699  4.43258292 16.9681754 
C 12.47307621  5.33944861 14.25644231
C 13.37549133  6.24185237 15.15885607
C  8.88507961  5.33934762 14.25631559
C  9.75815561  6.24185723 15.15883439
C 10.66431136  1.74579806 12.44767437
C 11.56915529  2.62175401 13.35252214
C  9.77131065  2.63772491 11.55469371
C 16.08665476 10.73802442 12.44776115
C 17.87158339  8.95308879 12.44777642
C 14.27805028  7.14441139 10.66851292
C 15.18182567  8.04822782 11.53878234
C 14.2913668   8.93857588 12.46223728
C 15.18180678  9.86202829 13.35258093
C 16.0721793   7.15776291 12.46223879
C 16.99561581  8.04822378 13.35259981
C 16.08667494  8.95310051 10.66285117
C 16.97966215  9.84607903 11.55478966
C 12.48517033  7.13220958 12.46377897
C 13.37235707  8.05117067 13.34958603
C 14.26584914  5.35154648 12.46379079
C 15.18478629  6.23873077 13.34959435
C 10.66432237  3.53069928 10.66276712
C 11.56916346  4.43554281 11.53873089
C 10.67882543  5.32601143 12.46219253
C 11.56620332  6.24499957 13.34956596
C 12.45963079  3.54520573 12.46219287
C 13.37864001  4.43258127 13.3495731 
C 12.4729776   5.33934452 10.66848799
C 13.37550948  6.24186653 11.54154995
C  8.87937231  3.53071492 12.44767023
C  9.75534821  4.43554766 13.35251935
H 15.45292372  1.08608521 18.49777738
H 10.03522298  6.51284574 18.49910422
H 10.03662494  8.31930544 20.31466379
H 11.84278763  6.51319109 20.31040092
H  8.21967044  8.31930658 18.49767255
H 13.64642064  2.90164988 18.49915606
H 13.64675556  4.70919648 20.31041873
H 15.4528908   2.90303148 20.31474857
H 11.84120084  4.70758355 18.4980595 
H 13.64681976  1.09036192 16.69152364
H 11.84283912  1.09036894 14.88751783
H  8.22394399  6.5131993  16.69148762
H 10.03522664  2.90164911 14.88789235
H 10.03630437  4.70758513 16.69312444
H 11.84120113  2.90270939 16.69315321
H  8.22394607  4.70921442 14.88750632
H 10.0366359   1.08604546 13.08138546
H  8.21961671  2.90304665 13.0813805 
H 10.03667147 11.39771502 17.23630493
H  8.21968486  9.58070829 17.23626836
H 13.64681452 11.39344849 13.6262398 
H 11.84283167 11.39343199 15.43020857
H 10.03633359  7.77613774 13.62455416
H 10.03526993  9.58212759 15.42981181
H 11.84121892  9.58106599 13.62460081
H  8.22395543  7.77451357 15.43015972
H  8.22395518  5.97054179 13.62617793
H 15.45293735 11.39775854 11.82007935
H 13.64686319  7.77452036 10.00735284
H 13.64647394  9.58215651 11.81864748
H 15.45294445  9.58080284 10.00315057
H 11.84122385  7.77616072 11.8196905 
H 10.03666282  4.16439911 10.00299532
H 10.03526006  5.97092043 11.81860011
H 11.84284057  5.97055709 10.00738089
H  8.21965297  4.16444516 11.81998144
H 16.7143167   1.08607637 17.23638506
H 18.5313079   2.90307083 17.23641279
H 14.90816632  1.09040283 15.43020918
H 13.10414563  1.09036504 13.62619332
H 18.52702847  6.51323411 13.62626469
H 18.5270162   4.7092331  15.43026453
H 14.90978748  2.90270556 13.62460977
H 16.71573305  2.90163135 15.42987891
H 16.71466206  4.7075922  13.62460712
H 11.29804176  1.08608848 11.81997944
H  9.13050824  1.99693598 10.91391688
H 18.53133938  8.31938422 11.82010682
H 14.90820658  6.51321036 10.00741258
H 16.71575699  6.51286303 11.81864926
H 16.71434436  8.319397   10.00309054
H 14.90980021  4.70760625 11.81970335
H 11.29805757  2.90299619 10.00306881
H 13.10452678  2.90161788 11.81860771
H 13.10415373  4.70921719 10.00733316
H 17.62041446  1.99695954 19.40388228
H 11.29807246 11.39765548 18.49772813
H 14.90974505  7.77612468 18.49807292
H 11.29804357  9.58072326 20.31465332
H 13.1041117   7.77451249 20.31044877
H 13.10451867  9.58210597 18.49911589
H  9.1305273  10.48679692 19.40376416
H 18.53126686  4.16446843 18.4978056 
H 14.90809056  5.97053046 20.31047289
H 16.71427785  4.16443978 20.31479198
H 16.71568841  5.97092604 18.49916696
H 14.90812906 11.3934428  14.88757438
H 13.10415064 11.39344239 16.69153039
H 18.52700973  7.77454078 14.88759841
H 14.90975663  9.58105212 16.69314677
H 16.7146431   7.77614704 16.69317554
H 16.71570533  9.5821397  14.88795628
H 18.52699797  5.97056452 16.69157365
H 16.71431878 11.39776707 13.08148696
H 18.53130188  9.58077144 13.08150934
H 17.62046606 10.48686581 10.91400925
