103
C 14.26719862  7.13363727 17.84746311
C 13.36615678  8.03466649 16.97524839
C 12.46427417  8.93652926 17.8531799 
C 11.57213475  9.82863315 16.96228023
C 12.46427497 10.71949317 16.07013083
C 13.36617466  9.84157635 15.16824861
C 14.26722381 10.71374054 14.26719759
C 15.1682749   9.8415589  13.36614238
C 16.05600665  8.92235993 14.25425087
C 15.16876971  8.03517078 15.1687897 
C 14.26724759  7.13362313 14.26726695
C 13.365674    6.23206177 15.16882618
C 12.47843182  7.14660136 16.05604439
C 11.55921261  8.03465356 15.1682813 
C 10.68703919  7.13361817 14.26725934
C 11.55924921  6.23259109 13.36623554
C 12.47847469  5.34486591 14.25432353
C 13.36621149  4.42562664 13.36626219
C 14.26724411  3.55342439 14.2673195 
C 15.16825563  4.42562448 15.16833864
C 14.28019295  5.34485885 16.05606835
C 15.16823049  6.23260136 16.97527704
C 16.07008833  5.33073991 17.85323388
C 16.96222686  4.43860925 16.96237399
C 17.8531177   5.33072134 16.07022123
C 16.97519926  6.23258075 15.16831907
C 17.84740088  7.13359823 14.267268  
C 16.97522342  8.03462851 13.36618362
C 17.85317657  8.93648081 12.46428009
C 16.96230681  9.82857529 11.57211345
C 16.0701512  10.7194607  12.46424834
H 15.43561593 11.37851277 11.83713128
H 16.69725242 11.3785295  13.09876485
C 16.0701705   8.93644826 10.68125272
C 15.16829863  8.03460722 11.55921398
C 14.26727106  7.13356445 10.6870509 
C 13.36622656  6.23256323 11.55927226
C 12.47847368  7.12064097 12.47847455
C 13.36568897  8.03515672 13.36567972
C 12.47844276  8.92237778 14.28020673
H 11.83609631  9.56469639 13.63483773
C 14.28022894  8.92235725 12.47842567
H 13.63487137  9.56467035 11.8360616 
H 11.83612815  7.76599429 11.83611425
C 14.25429332  5.34483872 12.47851702
C 15.16879964  6.23203597 13.36571201
C 16.05600533  5.34483078 14.28026772
H 16.69831926  4.70246894 13.63490548
C 16.05603212  7.14655406 12.47845982
H 16.69834356  6.50115977 11.83612272
H 14.89964013  4.70249197 11.83617329
C 12.46435298  5.33069774 10.68137171
C 11.57221069  4.43859003 11.57225273
C 10.68133601  5.33072541 12.46437382
H 10.02230188  5.96526822 11.83724569
H 10.02227067  4.7036171  13.09890503
C 12.4643395   3.54770547 12.46439571
H 13.09886099  2.88863602 11.83728292
H 11.8372144   2.88865388 13.09892332
H 10.93183562  3.7982213  10.93188439
H 11.83723928  5.96523981 10.02232345
H 13.09887814  4.7035686  10.02232065
H 13.63641493  7.76438989 10.02616983
H 14.89812971  6.50266959 10.02624222
H 15.43561198  9.56355368 10.02221591
H 16.69725833  8.3018845  10.02219833
H 17.60268826 10.46893203 10.9317365 
H 18.51223746  8.30193097 11.83719541
H 18.51220621  9.56360583 13.09881856
H 18.50824786  6.50272693 13.63643542
H 18.50823427  7.76446807 14.8981146 
C 16.05598621  7.12064231 16.05604629
H 16.6983177   7.76601419 16.69836048
H 18.5121653   4.7036084  15.43568714
H 18.5121644   5.96528198 16.69731108
C 16.07010847  3.5477014  16.07023542
H 16.69721591  2.88863454 15.43570588
H 15.4355496   2.88864972 16.69733097
H 17.60260561  3.79826311 17.60276188
H 16.69718423  5.9653043  18.51228953
H 15.43551624  4.70363268 18.51225446
H 13.63480676  4.7025139  16.69837619
H 14.89809288  2.89256377 13.63646892
H 13.63637629  2.89258079 14.89816871
H 11.8361149   4.70253899 14.89967417
H 10.02619865  7.76445296 13.6363839 
H 10.02620806  6.50274459 14.89811932
C 10.68126177  8.93651397 16.07014034
H 10.02224105  9.563627   15.43557188
H 10.02219264  8.30196954 16.69723019
H 11.83607419  6.50122265 16.69835209
C 14.25424878  8.9223802  16.05601002
H 14.89960838  9.56473294 16.69831981
H 16.6983351   9.56471443 14.89960504
H 13.63637062 11.37458998 13.63633852
H 14.89807838 11.37459137 14.89804667
H 11.83716287 11.37854698 15.43559228
H 13.09880499 11.37856082 16.69721992
H 10.93176019 10.46901349 17.60265606
H 13.09882247  9.56365587 18.51221809
H 11.83715262  8.30198285 18.51221038
H 14.89804606  7.76449854 18.50830864
H 13.63632104  6.50277592 18.50828103
