71
C 14.26604291  7.13215424 17.84763844
C 13.37741536  8.0210068  16.9610096 
C 12.47487062  7.14821919 16.05897081
C 13.36037413  6.22736033 15.17323586
C 14.26585026  7.13318594 14.26807159
C 15.17137323  8.03837343 15.17374702
C 16.05684786  8.92418046 14.25303309
C 15.15438105  9.82624482 13.38033465
C 14.26587778 10.71302254 14.26925073
C 13.37738236  9.8257724  15.15763307
C 12.47477525  8.92419138 14.28440409
C 11.57304581  8.02155004 15.15688285
C 10.68601572  7.13318715 14.26806901
C 11.57305632  6.24491747 13.37917385
C 12.47484061  5.34215326 14.25187127
C 13.37733832  4.44059817 13.37856986
C 14.2659246   3.55332667 14.26682782
C 15.15458103  4.4401017  15.15561384
C 14.28152894  5.34162533 16.05833369
C 15.15466318  6.24383941 16.96038503
C 16.05703939  7.11691447 16.05901442
C 16.95876783  6.24438553 15.15638902
C 17.84571318  7.1331981  14.26799835
C 16.95872745  8.02198188 13.37968906
C 16.05699539  7.149441   12.47710538
C 15.1546066   8.02255462 11.57576486
C 14.26595887  7.13428553 10.68854012
C 13.37735986  6.2453441  11.57515233
C 12.47479799  7.11806201 12.47718649
C 13.36039835  8.03891831 13.36305196
C 14.28149217  8.92480117 12.47780481
H 13.63511113  9.5654062  11.83729133
H 11.83440704  7.76469878 11.83671385
C 14.25012251  5.34262541 12.47650583
C 15.1713314   6.22800586 13.3624197 
C 16.05688977  5.34212651 14.28311678
H 16.69756491  4.70194392 13.63646929
H 14.89663887  4.70232039 11.83577823
H 12.73288717  5.60136226 10.93953978
H 13.63644788  7.76406705 10.02919981
H 14.89539982  6.50508357 10.02849239
H 15.79879854  8.66728093 10.94063021
H 16.69752126  6.5031542  11.83635823
H 17.5940174   8.66675903 12.73570519
H 18.5054117   6.50390315 13.63831824
H 18.50541203  7.76249371 14.89767204
H 17.59412492  5.59970124 15.80040004
H 16.69757798  7.76319658 16.69975581
H 15.79881968  5.59906366 17.59548817
H 13.63529143  4.70082668 16.69877815
H 15.79879453  3.80460043 15.79992767
H 14.89537813  2.89370176 13.637192  
H 13.63638426  2.89359428 14.89617485
H 12.73274294  3.8055007  12.73421711
H 11.83425832  4.70135063 14.89797027
H 10.93776226  5.60061386 12.73473621
H 10.02617967  7.76282591 13.63885417
H 10.02649594  6.50339478 14.89738127
H 10.93773835  8.66555635 15.80160399
H 11.8343697   9.56508452 13.63820005
C 14.25018621  8.92375527 16.05963804
H 14.89669772  9.56404514 16.70039355
H 12.7328977  10.46091206 15.80206112
H 13.63639184 11.37290033 13.63995974
H 14.89540834 11.37250556 14.89891788
H 15.79883138 10.46175076 12.73625252
H 16.69744017  9.56453207 14.89956291
H 11.8343197   6.50170533 16.69938937
H 12.73285507  8.66496623 17.59653402
H 14.89549746  7.7614025  18.50763519
H 13.63655246  6.50238495 18.50701206
