593
C 19.69620713  1.70450979 21.48138519
C  7.05473964 14.34602831 21.48137199
C 10.66815798 10.73259055 21.47487329
C  8.86321484 12.53753266 21.47622266
C 14.27788732  7.12285671 21.4743612 
C 12.47305154  8.92768769 21.4743706 
C 17.88772938  3.51299206 21.47621376
C 16.08278566  5.31795399 21.47484486
C 21.48138155  1.70451235 19.69621584
C 17.88770302 -0.07549358 17.88770708
C 18.7913493   0.79515318 18.79135547
C 17.90125316  1.71875699 19.68195582
C 18.79136361  2.60934699 20.60556144
C 19.69619687 -0.08066938 19.696202  
C 20.58907114  0.81163004 20.58907826
C 19.6819513   1.71875805 17.90126273
C 20.60555573  2.60934733 18.79137588
C 16.09539212  1.72068824 17.87583016
C 16.98242542  2.60606425 18.79464801
C 10.65555532 14.32986037 17.87584535
C  7.06900124 14.33178309 17.90125699
C  7.95960185 15.25537748 18.79135273
C  7.05475204 16.13120899 19.69619324
C  8.84969054 14.33178224 19.68195916
C  8.86324849 16.12604358 17.88771576
C  5.26957599 14.34602806 19.69619445
C  6.1618772  15.23890522 20.58906446
C 14.26553096 10.72009452 17.87479415
C 10.6680878  10.73265551 17.88627649
C 11.57409406 11.63890417 18.79347085
C 10.65553921 12.52564319 19.68007028
C 12.46071199 10.7203901  19.67924451
C 12.46063411 12.524947   17.87517404
C  7.07090192 10.74520415 17.87583522
C  7.95629315 11.63222789 18.79465316
C  7.06898302 12.55107341 19.6819626 
C  7.95958765 13.44118417 20.6055591 
C  8.87510154 10.74520675 19.68005374
C  9.76545259 11.63528841 20.60259044
C  8.86316413 12.53759511 17.88778828
C  9.7685207  13.44446999 18.79465518
C  5.27473737 12.53752991 17.8877177 
C  6.14539366 13.44118444 18.79135175
C 17.87515402  7.11044    17.87516121
C 14.2779076   7.12284477 17.88571221
C 15.1840316   8.02892733 18.79293733
C 14.26564202  8.915443   19.67895718
C 16.07058606  7.11051659 19.67922562
C 16.07029526  8.91532758 17.87478725
C 10.68064932  7.13521134 17.87478906
C 11.56689376  8.02162594 18.79294201
C 10.68035096  8.94002357 19.67923109
C 11.57054366  9.83019201 20.60183762
C 12.48529706  7.13509929 19.67896887
C 13.37547031  8.02527953 20.60158411
C 12.47303919  8.92770311 17.88571427
C 13.37911768  9.83383688 18.79294114
C  8.87579208  8.94010363 17.87515474
C  9.76183502  9.82664392 18.7934598 
C 21.47620809  3.51299539 17.88774314
C 17.88778201  3.51294854 17.88778832
C 18.79464673  4.41830486 18.79465604
C 17.87583796  5.30533693 19.68004677
C 19.68195835  3.49945858 19.68196806
C 19.68003867  5.30533826 17.87584893
C 14.29030608  3.52558008 17.87515818
C 15.17684046  4.4116335  18.79345561
C 14.29022694  5.33014791 19.67923013
C 15.18038981  6.22034806 20.60182331
C 16.09540102  3.52488576 19.68005796
C 16.98549411  4.41524532 20.60257642
C 16.08285424  5.31789365 17.88626875
C 16.98910092  6.22388876 18.79345572
C 12.48541272  5.33044962 17.87478952
C 13.37182147  6.21669345 18.7929398 
C 17.87582947  1.72068894 16.095397  
C 18.79464453  2.60606514 16.98243333
C 14.27786191 -0.07360945 14.2778588 
C 15.18036009  0.79892917 15.18035874
C 14.29021637  1.7215347  16.07057175
C 15.17683267  2.60727933 16.98909156
C 16.08274967 -0.07410977 16.08274964
C 16.98546408  0.79815288 16.98546651
C 16.07057488  1.72153494 14.2902171 
C 16.98909264  2.60727975 15.17683572
C 12.48529036  1.7218083  14.26562688
C 13.37180978  2.60781428 15.18401803
C 14.26565838 14.32873087 14.26565668
C 10.68037684 14.32903197 14.29024033
C 11.57058427 15.25161972 15.18039209
C 10.66820489 16.12467681 16.08277904
C 12.46072945 14.32901388 16.07059542
C 12.47309004 16.12417485 14.27789919
C  8.87512425 14.32986894 16.09540909
C  9.76548692 15.25239073 16.9854793 
C 17.87479356 10.720097   14.26553729
C 14.27728604 10.73151331 14.27728605
C 15.18390067 11.63821369 15.18390365
C 14.26553566 12.52455903 16.07030911
C 16.07021363 10.72000579 16.07021896
C 16.07030944 12.52455944 14.26554043
C 10.66902725 10.73173371 14.27837298
C 11.57067762 11.63418152 15.18026517
C 10.66809834 12.5360676  16.08286145
C 11.57410435 13.44326154 16.98911259
C 12.47257682 10.73172774 16.08193405
C 13.3791237  11.63841536 16.9886382 
C 12.47304932 12.53549529 14.27791599
C 13.37913329 13.4427261  15.1840468 
C  7.0717209  10.72039739 14.29022218
C  7.95749292 11.63890813 15.17684019
C  7.0708965  12.52564714 16.09540402
C  7.95630589 13.44447108 16.98242914
C  8.86468207 10.73265781 16.08285681
C  9.76571357 11.6350271  16.98523477
C  8.87579126 12.52496344 14.29031737
C  9.76185166 13.44327068 15.17684904
C  5.27609491 10.73258654 16.08276951
C  6.14837182 11.63528661 16.98547958
C 21.47436176  7.12285978 14.27790215
C 17.88571211  7.12284608 14.27791264
C 18.79293565  8.02892892 15.18404033
C 17.87478411  8.91532844 16.07030168
C 19.67922134  7.11051828 16.07059647
C 19.6789574   8.91544648 14.2656516 
C 14.27773441  7.1230207  14.27773295
C 15.17985357  8.02513862 15.17985412
C 14.277284    8.92707937 16.08172096
C 15.18389515  9.8336934  16.98843151
C 16.08193057  7.12238837 16.08193241
C 16.98862252  8.02892911 16.98862896
C 16.08172029  8.92707923 14.27728495
C 16.9884303   9.8336949  15.18389978
C 10.66923089  7.12346627 14.27727703
C 11.57107981  8.02541443 15.17984987
C 10.66902443  8.9281614  16.08192838
C 11.57067053  9.83006099 16.9843953 
C 12.47366137  7.12346509 16.08172071
C 13.37546986  8.02527549 16.98411398
C 12.47321169  8.92752753 14.27773354
C 13.37533283  9.82965006 15.17985527
C  7.07199707  7.13510321 14.26562879
C  7.95801942  8.0216234  15.18402427
C  7.0717336   8.94002092 16.07057884
C  7.95749486  9.82664188 16.98909822
C  8.87616905  7.13521216 16.07029315
C  9.76231787  8.02162174 16.98862465
C  8.86524829  8.92770649 14.27789823
C  9.76655371  9.83006237 15.18025886
C  5.27659328  8.92768254 14.27786978
C  6.14912785  9.83018641 15.1803763 
C 21.47484006  5.31795676 16.08280056
C 17.87516069  3.52558075 14.290311  
C 18.7934555   4.41163469 15.17684816
C 17.88626652  5.31789491 16.08286066
C 18.79344858  6.22388918 16.98911111
C 19.68005574  3.52488742 16.09541095
C 20.6025705   4.41524738 16.98550741
C 19.67923045  5.33014998 14.29023628
C 20.6018207   6.22035091 15.18040286
C 14.27789973  3.51505384 14.27789723
C 15.18025556  4.41636468 15.18025514
C 14.27837064  5.31883233 16.08192486
C 15.18026025  6.22046796 16.98439232
C 16.08285001  3.51447672 16.08285126
C 16.98522784  4.41551125 16.98523193
C 16.08192687  5.31883242 14.278372  
C 16.98439202  6.22046876 15.18026382
C 10.68064525  3.52596564 14.26551949
C 11.56703291  4.41232541 15.18388406
C 10.68073971  5.33054136 16.07020671
C 11.56703826  6.21683595 16.98842495
C 12.48540658  3.52596645 16.07029353
C 13.37181542  4.41212196 16.98862214
C 12.47366041  5.31904276 14.27727519
C 13.37560888  6.22087953 15.1798491 
C  8.87616361  5.33045445 14.26551676
C  9.76251773  6.21683436 15.18388454
C 14.26563306  1.72180843 12.48528782
C 15.18402266  2.60781443 13.37180917
C 10.66816255 -0.07412549 10.66815289
C 11.57054146  0.79892129 11.57053359
C 10.68035087  1.72152656 12.46069428
C 11.56688765  2.60781077 13.37910247
C 12.47303922 -0.07362096 12.47303297
C 13.37544963  0.79917598 13.37544516
C 12.46070391  1.72152663 10.68034493
C 13.37911027  2.60781092 11.56688376
C  8.87509388  1.72068511 10.65551804
C  9.76182851  2.60727511 11.57407417
C 17.87585157 14.32986209 10.6555591 
C 14.29024747 14.32903134 10.68037391
C 15.18039732 15.25161935 11.57058396
C 14.27790276 16.12417273 12.47308765
C 16.07059838 14.32901512 12.46073145
C 16.08278492 16.12467781 10.6682056 
C 12.48532101 14.32876149 12.48531707
C 13.37549574 15.2513653  13.37549366
C 21.47488116 10.73259421 10.66817294
C 17.88628268 10.73265778 10.66809347
C 18.79347529 11.6389059  11.57410152
C 17.8751762  12.5249487  12.46063903
C 19.67924644 10.72039336 12.46072204
C 19.68007719 12.52564552 10.65554816
C 14.27837948 10.73173346 10.66902561
C 15.1802712  11.6341818  11.57067707
C 14.2779193  12.53549835 12.47304891
C 15.18404738 13.4427252  13.37913537
C 16.0819369 10.731729  12.4725793
C 16.988637   11.63841676 13.37913059
C 16.08286701 12.53606587 10.66809829
C 16.98911633 13.44326243 11.5741093 
C 10.68074501 10.72003241 10.68073558
C 11.56704871 11.63823534 11.56704112
C 10.68065793 12.52459069 12.48541957
C 11.56691326 13.44274451 13.37183305
C 12.47367027 10.73152513 12.47366579
C 13.37547869 11.63389771 13.37547718
C 12.48542681 12.52459161 10.68065238
C 13.37183832 13.44274371 11.56690892
C  8.87616509 10.72011607 12.4854101 
C  9.76232146 11.63843289 13.37182174
C 21.47437546  8.92769128 12.47306652
C 17.87479791  7.13521367 10.68065589
C 18.79294866  8.02162819 11.56690239
C 17.88571882  8.92770615 12.47304636
C 18.7929429   9.83383875 13.37912542
C 19.67897411  7.13510169 12.48530748
C 20.6015868   8.02528227 13.37548294
C 19.67923987  8.94002669 10.68036173
C 20.60184414  9.83019519 11.57055652
C 14.27728589  7.12346667 10.66922991
C 15.17985609  8.02541539 11.57108088
C 14.27773789  8.9275284  12.47321088
C 15.17985756  9.82965077 13.37533385
C 16.0817257   7.12346636 12.47366354
C 16.98411601  8.02527724 13.37547479
C 16.08193569  8.92816206 10.6690267 
C 16.98440082  9.83006269 11.57067463
C 10.66901546  7.12239259 10.66900544
C 11.57107916  8.02514145 11.57107155
C 10.6692341   8.92708883 12.47365513
C 11.57108352  9.8296555  13.37560934
C 12.47320812  7.12302063 12.47320302
C 13.3754706   8.02527677 13.37546741
C 12.47366567  8.92708787 10.66922945
C 13.37561571  9.82965529 11.57108024
C  7.07172164  7.11052468 10.68034102
C  7.95801473  8.02893423 11.56688457
C  7.07199566  8.91545144 12.48528902
C  7.95801858  9.83384244 13.37181322
C  8.86523717  7.12284782 12.47302396
C  9.7668331   8.02527866 13.37546065
C  8.87616585  8.91534376 10.68064217
C  9.76252198  9.83370932 11.56703153
C  5.27658646  7.1228568  12.47303339
C  6.14937318  8.02527155 13.37545228
C 17.87479497  5.33045141 12.48541843
C 18.79294274  6.21669583 13.37182958
C 14.26552915  3.52596579 10.68064346
C 15.18389207  4.41232583 11.5670331 
C 14.2772808   5.31904267 12.47365875
C 15.17985262  6.22088004 13.37560924
C 16.0702999   3.52596664 12.48540794
C 16.98862662  4.41212266 13.37181879
C 16.07021591  5.33054277 10.68074226
C 16.98843213  6.21683775 11.56704281
C 10.66807887  3.51447132 10.66806939
C 11.57066137  4.41636146 11.57065397
C 10.66901477  5.31882702 12.47255958
C 11.57107602  6.22087901 13.37531981
C 12.47303154  3.51504434 12.47302582
C 13.37546432  4.41664981 13.37546072
C 12.47256914  5.31882684 10.66900941
C 13.37532697  6.22087927 11.57107299
C  7.07087778  3.52489469 10.65551708
C  7.95748362  4.41163595 11.57407302
C  7.07172001  5.3301557  12.46069486
C  7.95801358  6.216694   13.37910232
C  8.87577821  3.52558141 12.46061264
C  9.76230983  4.41211994 13.37910776
C  8.8646712   5.31789734 10.66806874
C  9.76654569  6.22046859 11.57065315
C  5.27609375  5.31796421 10.6681374 
C  6.14912475  6.22035094 11.57052656
C 10.65553095  1.72068495  8.8750846 
C 11.57408564  2.60727507  9.76182083
C  7.05472138 -0.08065024  7.05470299
C 7.95957059 0.79516338 7.95955629
C 7.06897269 1.71876782 8.84965523
C 7.95628115 2.6060697  9.76848598
C  8.86321118 -0.07549512  8.86319886
C 9.76545115 0.79814718 9.76544012
C 8.84967069 1.71876755 7.06895997
C 9.76850019 2.60606939 7.95627048
C 5.26954766 1.7045387  7.0546987 
C 6.14537396 2.60936765 7.95954773
C 21.48138725 14.34602998  7.05475202
C 17.90127132 14.33178261  7.0690069 
C 18.79136555 15.25537688  7.95960912
C 17.88772635 16.12604339  8.86325311
C 19.6819705  14.33178288  8.84969972
C 19.69620748 16.13120905  7.05476142
C 16.09541796 14.32986768  8.87512463
C 16.98548855 15.25238968  9.76549117
C 21.47623477 12.53753473  8.86322792
C 17.87585122 10.7452046   7.07090868
C 18.79466676 11.63222794  7.95630124
C 17.88779904 12.53759599  8.86317095
C 18.79466457 13.44446958  9.76852694
C 19.68006639 10.74520778  8.8751123 
C 20.60260063 11.63529053  9.7654643 
C 19.68197831 12.55107379  7.06899305
C 20.60557293 13.44118546  7.95959817
C 14.29023699 10.72039612  7.07171805
C 15.17685306 11.63890731  7.95749207
C 14.29032752 12.52496284  8.87578865
C 15.17685728 13.44327086  9.76185192
C 16.08286722 10.73265804  8.86468422
C 16.98524284 11.63502786  9.76571743
C 16.09541786 12.52564559  7.07089793
C 16.98244059 13.4444708   7.95630957
C 12.48542206 10.72011546  8.87615888
C 13.37183127 11.63843279  9.76231699
C 17.87516681  8.94010561  8.875799  
C 18.79346981  9.82664591  9.76184399
C 14.26564604  7.13510203  7.07199402
C 15.18403877  8.0216235   7.958019  
C 14.27790963  8.92770571  8.86524611
C 15.18026815  9.83006241  9.76655375
C 16.07030534  7.13521347  8.8761712 
C 16.98863501  8.02162319  9.76232244
C 16.07059445  8.94002228  7.07173413
C 16.98911187  9.82664254  7.95749915
C 10.68035923  7.11052379  7.07171124
C 11.56690143  8.02893308  7.95800501
C 10.68065714  8.91534283  8.8761548 
C 11.56704503  9.8337094   9.76251229
C 12.47303848  7.12284753  8.86523182
C 13.37547121  8.02527879  9.76683001
C 12.48530726  8.91545021  7.07198722
C 13.37182966  9.83384131  7.95801115
C 8.87578887 7.11045087 8.87577481
C 9.7623185  8.02894221 9.76230589
C 14.2655301   5.33045494  8.87616246
C 15.18389558  6.2168356   9.76251871
C 10.65553372  3.5248939   7.07086931
C 11.57408868  4.41163533  7.95747623
C 10.66808169  5.31789761  8.86466132
C 11.57066518  6.22046877  9.76653803
C 12.46062636  3.52558106  8.87577286
C 13.37911952  4.41212017  9.76230632
C 12.46071308  5.33015443  7.07171539
C 13.37911831  6.21669407  7.95800979
C 7.06897364 3.4994779  7.06895725
C 7.95628566 4.41831919 7.95627177
C 7.07089581 5.30535032 8.87508375
C 7.95749011 6.22389873 9.76181894
C 8.86314603 3.51295306 8.86313368
C 9.76569879 4.41551242 9.76568747
C 8.87510032 5.30535003 7.07088388
C 9.76183353 6.22389766 7.95747967
C 5.27472244 3.5130106  8.86318649
C 6.14836262 4.41525841 9.76542384
C 7.05472249 1.70453986 5.26952657
C 7.95956491 2.60936655 6.14535811
C 6.16185255 0.81165945 6.16183174
C 19.69621312 14.34602806  5.2695853 
C 20.58908081 15.23890616  6.1618878 
C 17.88773733 12.53752953  5.27474379
C 18.79136901 13.4411844   6.14540153
C 16.08279    10.73258615  5.27609648
C 16.98549729 11.63528616  6.14837548
C 14.27789193  8.92768035  5.27658793
C 15.18039653  9.83018398  6.14912378
C 12.47305545  7.12285356  5.27657903
C 13.37547289  8.02526937  6.14936586
C 10.66815793  5.31796244  5.27608638
C 11.57054609  6.22034958  6.14911761
C 8.86320675 3.51301091 5.27470984
C 9.76544159 4.41525753 6.14835318
H 19.06251878  1.07673896 22.14107658
H  6.42696738 13.71233216 22.1410484 
H 10.03760355 10.10171416 22.1359155 
H  8.23312222 11.90621709 22.13731055
H 13.64711166  6.4922004  22.1353974 
H 11.8423971   8.29691055 22.13540661
H 17.25639638  2.8829194  22.13730396
H 15.45191469  4.68739094 22.13587864
H 22.14106972  1.07674127 19.06252553
H 18.51778399 -0.73657381 17.25637279
H 17.25636815 -0.73657486 18.51778634
H 17.25633349  1.07519432 20.32550293
H 19.06250161 -0.74035369 20.32396866
H 20.32396599 -0.74034476 19.06250089
H 20.32549994  1.07519618 17.25634364
H 15.45104848  1.0766844  18.51946878
H  4.60989538 13.7123315  20.32396189
H  6.42691452 10.10084542 18.51947398
H  6.42542434 11.90616799 20.32551691
H  8.23145697 10.10084954 20.32403702
H  4.61364767 11.90621279 18.51780684
H 10.03665661  6.49112058 18.51871586
H 10.03647146  8.29584818 20.32317619
H 11.84127077  6.49107487 20.32290855
H  8.23191313  8.29585975 18.5190268 
H 22.13730016  2.88292388 17.25641094
H 13.64604939  2.88171705 18.51903195
H 13.64604851  4.68626941 20.32317418
H 15.45104977  2.88125234 20.32404801
H 11.84132168  4.68645466 18.51871286
H 18.51946999  1.07668554 15.45105472
H 14.90852324 -0.7346374  13.64707942
H 13.64708158 -0.73463762 14.90851895
H 13.6460318   1.07757247 16.71443461
H 15.45186465 -0.73514083 16.71330107
H 16.71330261 -0.7351403  15.45186555
H 16.71443922  1.077573   13.64603372
H 11.84127402  1.07785395 14.90965839
H  4.6150536  10.10170507 16.7133192 
H 22.13539934  6.49220296 13.64712878
H  6.42805908  6.49108432 14.90966554
H  6.42778715  8.29583879 16.7144493 
H  8.23223439  6.49111931 16.71427448
H  4.615561    8.29690689 14.90853203
H 22.13587604  4.68739474 15.45193112
H 18.51903683  2.88171839 13.64605596
H 20.32404863  2.88125475 15.45106181
H 20.32317681  4.68627214 13.64605968
H 10.03665505  2.88205366 14.90962724
H 10.03672558  4.68652283 16.71420742
H 11.84130586  2.88204784 16.71427945
H  8.23223912  4.68646667 14.90961711
H 14.90966591  1.07785427 11.84127262
H 11.29904306 -0.73515657 10.03759649
H 10.03760505 -0.73515663 11.2990322 
H 10.03647462  1.0775651  13.10486756
H 11.84237924 -0.73465543 13.10380701
H 13.10381444 -0.73465535 11.84237407
H 13.10487865  1.07756529 10.03647002
H  8.23145074  1.07668214 11.29985796
H 22.13592582 10.101718   10.03762099
H 22.13541337  8.29691449 11.84241371
H 18.51872683  6.49112335 10.03666488
H 20.32291554  6.49107777 11.84128244
H 20.32318667  8.29585105 10.03648425
H  4.61554776  6.49219514 13.1038037 
H 18.51871997  4.68645706 11.84132843
H 14.90963854  2.88205415 10.03665457
H 16.71428736  2.88204841 11.84130839
H 16.71421854  4.68652483 10.03672953
H  6.42688519  2.88126204 11.2998663 
H  6.4277734   4.68627688 13.10487086
H  8.23189827  2.88171942 13.10486511
H  4.61506181  4.68739915 11.29900824
H 11.29987205  1.07668179  8.23144272
H  7.68842014 -0.74032607  6.42693196
H  6.42694967 -0.74033402  7.68839382
H 6.42542143 1.07520556 9.49457113
H  8.23312746 -0.7365756   9.49453018
H  9.49454394 -0.73657538  8.23311633
H 9.49458828 1.07520516 6.42541038
H 4.60985231 1.07676782 7.68838289
H 22.14106512 13.71233428  6.42698086
H 22.13732401 11.90621869  8.23313721
H 18.51949181 10.10084554  6.42692334
H 20.3240511  10.10085056  8.23146915
H 20.32553362 11.90616806  6.42543573
H 18.51904066  8.29586166  8.23192184
H 14.90968625  6.49108306  6.42805947
H 16.71428887  6.49112072  8.23223869
H 16.71446756  8.29583965  6.42779028
H 14.90963266  4.68646738  8.23223998
H 11.29988358  2.88126118  6.42687743
H 13.10488027  2.88171932  8.23189407
H 13.10489054  4.68627545  6.42777057
H 4.61363115 2.88293658 9.49451698
H 7.68841097 1.0767677  4.60983764
H 20.32398215 13.71233161  4.60990607
H 18.51782819 11.90621273  4.61365534
H 16.71334334 10.10170701  4.61505562
H 14.90855578  8.29690341  4.61555761
H 13.10382645  6.49219007  4.61554291
H 11.29902963  4.68739716  4.61505571
H 9.49453874 2.88293688 4.61361997
H  6.42544388 14.97534261 17.25635106
H  6.42697432 16.7908691  19.06248707
H  8.23316022 16.78710604 17.25637222
H  4.60989391 14.97380514 19.06250473
H  4.61364314 13.16760605 17.25638762
H 10.03652105 14.97299973 13.64606117
H 10.03765468 16.78571047 15.45189122
H 11.84243035 16.78520366 13.64711725
H  8.23150119 14.97387024 15.45105407
H  6.42776315 11.36426838 13.64605081
H  6.42690008 13.1692821  15.45104956
H  8.23191594 13.16883333 13.64606462
H  4.61508967 11.36315581 15.45187549
H  4.61556283  9.55834966 13.64709565
H 13.64607188 14.9729948  10.03650697
H 13.64712103 16.78520016 11.84242644
H 15.45189876 16.78570959 10.03765285
H 11.84129201 14.97271594 11.84130241
H 10.03673185 11.36403755 10.0367211 
H 10.0366737  13.16852331 11.84131635
H 11.84132645 13.16852563 10.03666737
H  8.23223608 11.3640997  11.84131767
H  6.42775978  7.75468561 10.03646046
H  6.42806536  9.55948849 11.8412599 
H  8.23224232  9.55945059 10.03665915
H  4.61554929  7.75362494 11.84236718
H  4.61505637  5.9488488  10.03758733
H 4.60989926 2.33825116 6.42691365
H 17.25636751 14.97534253  6.42544792
H 17.25638308 16.78710522  8.2331646 
H 19.06250229 16.79086898  6.4269826 
H 15.45106437 14.97386925  8.23150042
H 13.64605203 11.36426663  6.42777408
H 13.64607613 13.16883173  8.23191053
H 15.45106557 13.16928054  6.42689933
H 11.84131481 11.3640991   8.23224407
H 10.0364914   7.75468781  6.42774359
H 10.03667514  9.55944915  8.23222898
H 11.84128021  9.55948716  6.4280545 
H 8.23190924 7.7546814  8.2318935 
H 6.42541304 4.14438727 6.42539569
H 6.4268986  5.94969255 8.23144324
H 8.23146123 5.94969225 6.42688566
H 4.61362958 4.14433185 8.23309996
H 6.42693853 2.33824849 4.60987358
H 5.52106638 0.17087092 5.52105894
H 19.06252448 14.97380465  4.60990169
H 17.25640867 13.1676055   4.61364797
H 15.45189729 11.36315518  4.61509018
H 13.64712024  9.55834676  4.6155549 
H 11.84239104  7.75362085  4.61553912
H 10.03760886  5.94884692  4.61504781
H 8.23312179 4.14433224 4.61361553
H 20.32399423  2.33821601 22.14103769
H  7.68842629 14.97380446 22.14105751
H 11.29905179 11.36316048 22.13587836
H  9.49454328 13.16760893 22.13731841
H 14.90855652  7.75362122 22.13539959
H 13.10381537  9.55835798 22.13540891
H 18.51781873  4.14430887 22.13730831
H 16.71333714  5.94883851 22.13588053
H 22.14103543  2.33821475 20.32400521
H 21.2298395   0.17083483 21.22986225
H 11.29991045 14.9738406  18.51948861
H  7.68844089 16.7908954  20.3239631 
H  9.49459274 14.97534074 20.3255217 
H  9.49457735 16.78712728 18.51779776
H  5.52109541 15.87969878 21.22984419
H 14.9096254  11.36407444 18.5187234 
H 11.29989317 13.16927639 20.32406972
H 13.10488205 11.36426174 20.32320401
H 13.10488678 13.16881519 18.51905237
H 18.51903506  7.75466717 18.51904419
H 14.9096725   9.55946083 20.32290428
H 16.71446458  7.75467875 20.32318689
H 16.71427328  9.55943423 18.51871296
H 22.13730077  4.1443123  18.51783441
H 18.51947945  5.94967618 20.32404615
H 20.3255206   4.14436351 20.32553261
H 20.32403579  5.94967753 18.51949226
H 14.90968811 14.97267252 14.9096851 
H 11.2990969  16.7856943  16.71333993
H 13.10491396 14.97297328 16.71445367
H 13.10385967 16.78520651 14.90856659
H 18.51870566 11.36407739 14.90964869
H 14.90964698 13.16849195 16.71427813
H 16.71422301 11.36401251 16.71423181
H 16.7142924  13.16847689 14.90965242
H 22.13539871  7.75362421 14.90857313
H 18.51871274  9.5594389  16.7142702 
H 20.32318487  7.75468367 16.71446572
H 20.32290297  9.55946466 14.90968326
H 22.13587335  5.9488415  16.71335445
H 18.51947862 14.97385822 11.29991586
H 14.90856838 16.78520533 13.10385834
H 16.71446963 14.97297455 13.10490325
H 16.71334364 16.78569714 11.29909856
H 22.13588361 11.36316522 11.29906833
H 18.51905439 13.16883241 13.10487731
H 20.32320305 11.36426487 13.10489429
H 20.32407452 13.16927892 11.29990343
H 22.13541171  9.55836182 13.10383221
H 22.14107126 14.97380667  7.68843971
H 18.51780768 16.78712718  9.49458304
H 20.32553119 14.97534091  9.49460368
H 20.32397576 16.79089563  7.68845166
H 22.13732896 13.16761182  9.49455709
H 21.2298612  15.87970012  5.52110705
