103
C 14.26692815  7.13393682 17.88498758
C 13.36378399  8.0365507  16.97853621
C 12.45972336  8.94125247 17.87967181
C 11.55972589  9.84135222 16.97441243
C 12.45969041 10.74554891 16.07505825
C 13.36369259  9.84523013 15.17038114
C 14.2671049  10.75091161 14.26702532
C 15.17043277  9.84524692 13.36371707
C 16.07646699  8.94244587 14.26817069
C 15.17373365  8.03985098 15.17374785
C 14.26692931  7.13396969 14.26691434
C 13.36036472  6.2273222  15.17374794
C 12.45857379  7.13292047 16.07651453
C 11.55571483  8.03656557 15.17038766
C 10.64910295  7.13388929 14.26719853
C 11.55571134  6.23056154 13.36380494
C 12.45852643  5.32443981 14.26821725
C 13.36375759  4.42164686 13.36380113
C 14.26705318  3.51603845 14.26710525
C 15.17045914  4.42175307 15.17047951
C 14.26589616  5.32456833 16.07648669
C 15.17038991  6.23057907 16.97850979
C 16.07517581  5.32567573 17.87961681
C 16.9744744   4.42570494 16.97440397
C 17.87951998  5.32566329 16.07511712
C 16.97844531  6.23054026 15.17032033
C 17.88487498  7.13394621 14.26692371
C 16.97847833  8.03647507 13.36375167
C 17.8795007   8.9411973  12.45983069
C 16.97437299  9.84134922 11.55973075
C 16.0751571  10.74559194 12.45965134
H 15.44110001 11.3766359  11.82534507
H 16.70943223 11.37700915 13.09447236
C 16.07506666  8.94150228 10.65440605
C 15.17035952  8.03654388 11.55569363
C 14.26720199  7.1338208  10.64913948
C 13.36376607  6.2305493  11.55572069
C 12.45851728  7.13508874 12.45853336
C 13.36027776  8.03985795 13.36028701
C 12.45849886  8.94245797 14.2657126 
H 11.82073149  9.58036221 13.62984737
C 14.26572719  8.942456   12.45850241
H 13.62987143  9.5803766  11.82074453
H 11.82077615  7.7701913  11.82079451
C 14.26815887  5.32441652 12.45853148
C 15.17370731  6.22729946 13.36034087
C 16.07643386  5.32453619 14.26584017
H 16.71478833  4.68659022 13.6304745 
C 16.07648288  7.1328747  12.45852517
H 16.71497524  6.49765629 11.82065244
H 14.90342198  4.68590388 11.82076576
C 12.45972179  5.32579224 10.65446479
C 11.55978585  4.42566757 11.55982118
C 10.65444439  5.32579621 12.459764  
H 10.02267052  5.95985364 11.82618089
H 10.02309109  4.69242985 13.09447248
C 12.45984974  3.52139929 12.45988408
H 13.09464925  2.89021536 11.82644032
H 11.82639924  2.89021128 13.09467186
H 10.92358092  3.78859946 10.92361988
H 11.82613866  5.95984992 10.02269199
H 13.09443057  4.6924193  10.02311593
H 13.63352046  7.76814507 10.01778336
H 14.90122153  6.49994088 10.01766389
H 15.44088204  9.57521489 10.02288694
H 16.70912757  8.30775574 10.02282776
H 17.61072779 10.47825186 10.92356573
H 18.51078263  8.306483   11.82643613
H 18.51068524  9.57470054 13.09464759
H 18.51586654  6.50024877 13.63225589
H 18.51602889  7.76847737 14.90071307
C 16.07634087  7.13501456 16.07635083
H 16.71447027  7.77104738 16.71497903
H 18.51059613  4.69131487 15.4411205 
H 18.51092127  5.95956681 16.70930294
C 16.07536907  3.52144241 16.07535249
H 16.70964375  2.89026536 15.44136967
H 15.44141408  2.89026296 16.70966497
H 17.61078497  3.78886042 17.61063873
H 16.70843253  5.95941646 18.5109884 
H 15.44108295  4.69199754 18.51122829
H 13.63054077  4.68665507 16.71488277
H 14.90080468  2.88505842 13.6324945 
H 13.63244407  2.8850702  14.90086932
H 11.82075827  4.68593726 14.90348996
H 10.01710975  7.76840015 13.63333484
H 10.01749872  6.50009822 14.90112412
C 10.65442589  8.9414799  16.07513077
H 10.0228501   9.57518705 15.44099545
H 10.0228988   8.30766013 16.70918086
H 11.82070391  6.49769717 16.71502899
C 14.2681321   8.94246398 16.0764819 
H 14.90343077  9.58042697 16.71486624
H 16.71418848  9.58022191 14.90329742
H 13.63332424 11.38186667 13.63241862
H 14.90168216 11.38191742 14.90080792
H 11.82613684 11.37657364 15.44022743
H 13.09450783 11.3770151  16.70930182
H 10.92366257 10.47763069 17.61049949
H 13.09351496  9.57460803 18.51091849
H 11.8262053   8.30715319 18.51142391
H 14.90057611  7.7683142  18.51633309
H 13.63289033  6.50006933 18.5164387 
