163
C 17.05828122  0.13415586 18.84175328
C 18.2653569   1.3519494  20.04886922
C  9.69271645 12.34962948 18.84173567
C 14.59997143  7.46637441 18.84270409
C  9.69858201  7.47407776 18.83569754
C 10.9230594   8.69424882 20.07515056
C  9.69267513  9.92471895 21.26661325
C 12.14809176  7.46910769 21.28023709
C 12.14332146  9.91871368 18.83570335
C  7.26774348  9.92475227 18.84172517
C  8.48557639 11.13183052 20.04881311
C 19.48317914  2.55906403 18.84179834
C 14.6075796  2.5650265 18.8357471
C 15.82776421  3.78947996 20.07518089
C 14.60266419  5.01453283 21.28028189
C 17.05817073  2.55902458 21.26663655
C 17.05228324  5.00970682 18.83573747
C 12.15091302  5.01734879 18.84274125
C 13.37543033  6.24185132 20.08076166
C 14.60283246  0.12047502 16.38616023
C 15.82785338  1.32557273 17.61125609
C 12.14823021  0.12051082 13.93161125
C 13.3755057   1.31996316 15.15890716
C 14.60275259 12.36326509 13.93159012
C 12.14814715 12.3632624  16.38612177
C 19.49689319  7.46918182 13.93163712
C 14.60509663  7.47154379 13.92925861
C 15.84079176  8.70721571 15.16944803
C 14.59997594  9.92569391 16.38338268
C 17.05928135  7.46636991 16.3833823 
C 17.05231999  9.91871149 13.92672888
C  9.69165852  7.46640245 13.93437556
C 10.91012235  8.70723722 15.14830477
C  9.69860618  9.91875286 16.39103645
C 10.92308805 11.15818368 17.6112318 
C 12.14586365  7.47152042 16.38854628
C 13.3860178   8.70719274 17.6242048 
C 12.15093712  9.92574836 13.93434813
C 13.37546365 11.16376452 15.15885646
C  7.25407955  7.46919291 16.38615642
C  8.45915223  8.69426582 17.61124283
C 19.49686611  5.01460123 16.38622331
C 14.60006154  2.55801653 13.93438924
C 15.84086372  3.77651414 15.14832401
C 14.6051138   5.01227746 16.38852906
C 15.84078946  6.25244067 17.62422698
C 17.0523432   2.56503275 16.39109844
C 18.29175221  3.7894982  17.61128808
C 17.05936991  5.01735846 13.93437451
C 18.29737997  6.24189859 15.15892375
C  9.69864742  2.56507972 13.92672444
C 10.91014663  3.77652226 15.16944875
C  9.69163971  5.01738509 16.38337897
C 10.91010164  6.23131263 17.62421339
C 12.1509641   2.55802666 16.38340501
C 13.3648542   3.77651366 17.6242259 
C 12.14593372  5.01224647 13.92926013
C 13.3754826   6.2418746  15.15887211
C  7.25407955  5.01462151 13.93159225
C  8.45358817  6.2418894  15.1588636 
C  9.69280054  0.13416663 11.47599525
C 10.92319004  1.32560063 12.70648545
C  8.48567062  1.35196063 10.26893102
C 17.05825128 12.34962014 11.47605543
C 19.48320964  9.92474781 11.47607666
C 14.60287447  7.46914499  9.03750437
C 15.82789349  8.6942545  10.24259888
C 14.60763847  9.91875203 11.48203639
C 15.82782482 11.15816853 12.7064881 
C 17.05237679  7.47405881 11.48205787
C 18.29178611  8.69424557 12.70652798
C 17.05828349  9.9247606   9.05116357
C 18.26541175 11.13182939 10.2689614 
C 12.15098593  7.46641133 11.47501946
C 13.36488329  8.70723254 12.69351453
C 14.6000635   5.01736878 11.47502913
C 15.84086185  6.23130692 12.69352101
C 9.69284067 2.55903428 9.0511494 
C 10.92319074  3.78952356 10.24260864
C  9.69866363  5.00975897 11.48205438
C 10.9101539   6.25247777 12.693522  
C 12.14339254  2.56506089 11.48206867
C 13.3861165   3.77653107 12.69354536
C 12.14820432  5.01465891  9.03750837
C 13.37552136  6.24190467 10.23697515
C  7.26784459  2.55907428 11.4760103 
C  8.45920235  3.78952909 12.70652453
H 16.17178924 -0.76573636 19.72436092
H  8.79373097  6.57727458 19.74054978
H  8.81003272  9.03826986 22.1665284 
H 11.26134988  6.58565657 22.18038024
H  6.36782845  9.03830511 19.72435731
H 13.71067463  1.66024831 19.74059414
H 13.71917511  4.12776916 22.18038147
H 16.17166349  1.67632947 22.16642966
H 11.25096637  4.11731488 19.74750676
H 13.71948889 -0.77989587 17.27280074
H 11.26153492 -0.77976641 14.81497614
H  6.35376894  6.58581141 17.27280771
H  8.79380468  1.660293   14.82362194
H  8.78691731  4.11737854 17.28338308
H 11.25100681  1.65331292 17.28345583
H  6.35379893  4.1279468  14.81498638
H  8.81024001 -0.7658693  12.36240346
H  6.36783082  1.676468   12.36238706
H  8.8101311  13.24966425 17.95534617
H  6.36784944 10.80739262 17.95526641
H 13.71935412 13.26354311 13.04492049
H 11.26144669 13.26348945 15.50270799
H  8.78697649  8.36635838 13.03430083
H  8.7938555  10.82361416 15.49412894
H 11.25091592 10.83051588 13.03439297
H  6.35379232  8.35583554 15.50274532
H  6.35382862  5.89801168 13.04488627
H 16.17177074 13.24949402 10.59340838
H 13.71955074  8.35574802  8.13708242
H 13.71082664 10.82359762 10.57716561
H 16.17170817 10.80745325  8.15143647
H 11.2510146   8.3664182  10.57026934
H 8.81032705 3.44540244 8.15103284
H  8.7939071   5.90664884 10.57717301
H 11.26142965  5.89810529  8.13738548
H  6.36799615  3.44554915 10.5933398 
H 17.94088818 -0.76580958 17.95532753
H 20.3831698   1.67645416 17.9554043 
H 15.48956045 -0.77967867 15.5026879 
H 13.03158721 -0.77980776 13.04494216
H 20.39718466  6.58578091 13.04498869
H 20.39715924  4.12794471 15.50283317
H 15.50007915  1.65323891 13.03442202
H 17.9571138   1.66017106 15.49422595
H 17.96403997  4.11732155 13.03432932
H 10.57934856 -0.76559348 10.59330001
H 7.58808658 0.45442575 9.37144467
H 20.383189    9.03834024 10.59347032
H 15.48961703  6.58566465  8.13738221
H 17.95714727  6.577178   10.57720267
H 17.94082715  9.03837616  8.15108734
H 15.50007929  4.11740305 10.57025186
H 10.5794219   1.67632751  8.15143817
H 13.04021466  1.66021992 10.57722132
H 13.03150454  4.12803029  8.13708804
H 19.16289368  0.45440992 20.94640421
H 10.57929628 13.24936012 19.72442642
H 15.49997058  8.36631813 19.74748004
H 10.57922766 10.80736209 22.1664205 
H 13.03139465  8.35570528 22.1806708 
H 13.04021792 10.82352002 19.74052351
H  7.58800528 12.02935283 20.94632195
H 20.38303529  3.44555284 19.72444497
H 15.48929231  5.89784935 22.18068312
H 17.94069697  3.44544369 22.16668504
H 17.95708159  5.906578   19.74058739
H 15.48941656 13.26354298 14.81498652
H 13.03148667 13.26363117 17.27274963
H 20.39717872  8.35585765 14.81501806
H 15.49997903 10.83045476 17.28333421
H 17.96403429  8.36634213 17.28334811
H 17.95711665 10.82355484 14.82360943
H 20.39715069  5.89797667 17.27290447
H 17.94081809 13.24960481 12.36250017
H 20.38308235 10.80738936 12.36255231
H 19.16298268 12.02934016  9.3714338 
